[TITLE]
Scenario: NEW AVG +F.F @ J-99 & J-60 
Date: 10/01/2018 2:50:33 PM 

[PATTERNS]
HydraulicPattern-1 1 1.06666666666667 1.13333333333333 1.2 1.26666666666667 1.33333333333333 1.4 1.53333333333333 1.66666666666667 1.8 1.86666666666667 1.93333333333333 2 1.93333333333333 1.86666666666667 1.8 1.7 1.6 1.5 1.4 1.3 1.2 1.13333333333333 1.06666666666667 1  
FireDemand 1 1 1 1 1 1 1 1 1 1 1 1 1 1 1 1 1 1 1 1 1 1 1 1  

[CURVES]
;PUMP:
PMP-1 164.606481481482 25
;EFFICIENCY:
PMP-1E 0 95

[JUNCTIONS]
J-1 131.780426025391 0 
J-3 131.822601318359 0 
J-4 131.45866394043 0 
J-5 131.829254150391 0 
J-7 131.836883544922 0 
J-8 131.291717529297 0 
J-10 131.227615356445 0 
J-11 131.682052612305 0 
J-12 133.203140258789 0 
J-13 132.20329284668 0 
J-14 131.971206665039 0 
J-15 131.661041259766 0 
J-16 132.278961181641 0 
J-17 131.239334106445 0 
J-18 131.199066162109 0 
J-19 131.661972045898 0 
J-20 131.652297973633 0 
J-21 131.741912841797 0 
J-22 131.327392578125 0 
J-23 130.959106445313 0 
J-24 131.979995727539 0 
J-25 131.960311889648 0 
J-26 131.93522644043 0 
J-27 132.048461914063 0 
J-28 130.669525146484 0 
J-29 129.997451782227 0 
J-30 130.578521728516 0 
J-31 131.358291625977 0 
J-32 132.155166625977 0 
J-33 131.919906616211 0 
J-34 132.570114135742 0 
J-35 133.221740722656 0 
J-36 133.031478881836 0 
J-37 132.843643188477 0 
J-38 131.853118896484 0 
J-39 132.257934570313 0 
J-40 131.896957397461 0 
J-41 131.439575195313 0 
J-42 132.313064575195 0 
J-43 132.571105957031 0 
J-44 131.999404907227 0 
J-45 132.327072143555 0 
J-46 132.166687011719 0 
J-47 132.032669067383 0 
J-48 130.775451660156 0 
J-49 131.346176147461 0 
J-50 132.316665649414 0 
J-51 131.692535400391 0 
J-52 131.505126953125 0 
J-53 132.401504516602 0 
J-54 132 0 
J-55 131.202880859375 0 
J-56 132.112121582031 0 
J-57 132.512008666992 0 
J-58 132.242141723633 0 
J-59 131.304779052734 0 
J-60 132.083267211914 0 
J-61 131.035736083984 0 
J-62 130.786697387695 0 
J-63 132.259170532227 0 
J-64 132.378524780273 0 
J-65 132.425888061523 0 
J-66 132.472213745117 0 
J-67 132.521667480469 0 
J-68 132.617660522461 0 
J-69 132.590270996094 0 
J-70 132.773971557617 0 
J-71 132.626693725586 0 
J-72 132.662673950195 0 
J-73 132.373794555664 0 
J-74 131.405639648438 0 
J-75 131.263122558594 0 
J-76 130.859344482422 0 
J-77 130.723159790039 0 
J-78 131.437927246094 0 
J-79 131.613037109375 0 
J-80 130.882690429688 0 
J-81 130.978744506836 0 
J-82 131.191833496094 0 
J-83 130.668121337891 0 
J-84 131.701309204102 0 
J-85 130.626159667969 0 
J-86 130.420196533203 0 
J-87 130.211715698242 0 
J-88 130.33464050293 0 
J-89 130.77912902832 0 
J-90 130.602554321289 0 
J-91 130.532424926758 0 
J-92 131.342620849609 0 
J-93 132.315307617188 0 
J-94 130.987274169922 0 
J-95 131.386749267578 0 
J-96 131.481964111328 0 
J-97 131.292434692383 0 
J-98 131.236206054688 0 
J-99 131.375152587891 0 
J-100 131.481796264648 0 
J-101 131.863159179688 0 
J-102 131.881057739258 0 
J-103 131.844436645508 0 
J-104 131.283004760742 0 
J-105 131.386093139648 0 
J-106 131.373001098633 0 
J-107 131.346801757813 0 
J-108 131.330078125 0 
J-109 131.884384155273 0 
J-110 132.259170532227 0 
J-111 132.091003417969 0 
J-112 132 0 
J-113 132.004730224609 0 
J-114 132.217987060547 0 
J-115 132.387924194336 0 
J-116 130.980484008789 0 
J-117 130.634796142578 0 
J-118 131.01203918457 0 
J-119 130.528305053711 0 
J-120 130.625274658203 0 
J-121 130.569961547852 0 
J-122 131.317443847656 0 
J-123 131.817077636719 0 
J-124 131.743362426758 0 
J-125 131.63737487793 0 
J-126 130.34326171875 0 
J-127 130.369705200195 0 
J-128 130.789901733398 0 
J-129 130.15380859375 0 
J-130 130.310195922852 0 
J-131 129.886322021484 0 
J-132 129.990615844727 0 
J-133 130.019454956055 0 
J-134 130.697052001953 0 
J-135 131.300323486328 0 
J-136 130.784622192383 0 
J-137 130.643753051758 0 
J-138 131.198486328125 0 
J-139 129.827560424805 0 
J-140 129.643295288086 0 
J-141 129.493789672852 0 
J-142 130.183944702148 0 
J-143 130.705673217773 0 
J-144 130.928009033203 0 
J-145 129.924194335938 0 
J-146 129.771240234375 0 
J-147 130.04069519043 0 
J-148 130.042617797852 0 
J-149 129.141387939453 0 
J-150 129 0 
J-151 128.9 0 
J-152 129.632339477539 0 
J-153 130.337844848633 0 
J-154 132.17724609375 0 
J-155 130.654479980469 0 
J-156 132.490310668945 0 
J-157 130.142532348633 0 
J-158 130.660400390625 0 
J-159 129.262985229492 0 
J-160 131.203018188477 0 
J-161 131.50456237793 0 
J-162 131.9296875 0 
J-163 131.818298339844 0 
J-164 131.425369262695 0 
J-165 131.59684753418 0 
J-166 131.559967041016 0 
J-167 131.210800170898 0 
J-168 131.662857055664 0 
J-169 130.722747802734 0 
J-170 131.576507568359 0 
J-171 131.505569458008 0 
J-172 131.876037597656 0 
J-173 131.590286254883 0 
J-174 131.320724487305 0 
J-175 131.675674438477 0 
J-176 131.151718139648 0 
J-177 131.869110107422 0 
J-178 131.904083251953 0 
J-179 131.936767578125 0 
J-180 131.35774230957 0 
J-181 132.29182434082 0 
J-182 130.635375976563 0 
J-183 131.344635009766 0 
J-184 132.862579345703 0 
J-185 131.524703979492 0 
J-186 131.911697387695 0 
J-187 130.107894897461 0 
J-188 130.458450317383 0 
J-189 131.224472045898 0 
J-190 130.984039306641 0 
J-191 130.482574462891 0 
J-192 130.345352172852 0 
J-193 129.701568603516 0 
J-194 130.409469604492 0 
J-195 130.638137817383 0 
J-196 131.908111572266 0 
J-197 131.902496337891 0 
J-198 131.113006591797 0 
J-199 132.028839111328 0 
J-200 131.305770874023 0 
J-201 130.615737915039 0 
J-202 132.098556518555 0 
J-203 130.330307006836 0 
J-204 131.824829101563 0 
J-205 133.057739257813 0 
J-206 133.063903808594 0 
J-207 132.559417724609 0 
J-209 131.957473754883 0 
J-2 131.075531005859 0 
J-6 131.13005065918 0 
J-210 131.746673583984 0 
J-211 131.458236694336 0 
J-212 131.018432617188 0 
J-213 130.070327758789 0 
J-214 130.566558837891 0 
J-215 130.995941162109 0 
J-9 131.523452758789 0 
J-262 132.531734143047 0 
J-263 130.874893309015 0 
J-264 132.019007390629 0 
J-265 132.45 0 
J-266 131.5 0 
J-267 131.878547071681 0 
J-268 131.372095820012 0 
J-269 131.870257906032 0 
J-270 130.4 0 
J-271 131.65 0 
J-272 131.35 0 
J-275 129.1 0 
J-278 130.839478236807 0 
J-279 130.632400221567 0 
J-280 129.64 0 
J-282 129.73 0 
J-283 129.725175975208 0 
J-284 131.5 0 
J-288 132.450114395839 0 
J-289 132.450114395839 0 
J-290 132.57 0 
J-291 133.2 0 
1276-A 129 0 
1276-B 129 0 

[RESERVOIRS]
R-1 130 

[DEMANDS]
J-1 0.0449508946785937 
J-1 0.0449508946785937 
J-1 0.0449508946785937 
J-1 0.0449508946785937 
J-3 0.0449508946785937 
J-3 0.0449508946785937 
J-3 0.0449508946785937 
J-3 0.0449508946785937 
J-3 0.0449508946785937 
J-3 0.0449508946785937 
J-3 0.0449508946785937 
J-5 0.0449508946785937 
J-5 0.0449508946785937 
J-5 0.0449508946785937 
J-5 0.0449508946785937 
J-5 0.0449508946785937 
J-5 0.0449508946785937 
J-7 0.0449508946785937 
J-7 0.0449508946785937 
J-7 0.0449508946785937 
J-7 0.0449508946785937 
J-7 0.0449508946785937 
J-7 0.0449508946785937 
J-8 0.0449508946785937 
J-8 0.0449508946785937 
J-8 0.0449508946785937 
J-8 0.0449508946785937 
J-8 0.0449508946785937 
J-8 0.0449508946785937 
J-8 0.0449508946785937 
J-8 0.0449508946785937 
J-10 0.0449508946785937 
J-10 0.0449508946785937 
J-10 0.0449508946785937 
J-10 0.0449508946785937 
J-10 0.0449508946785937 
J-10 0.0449508946785937 
J-10 0.0449508946785937 
J-10 0.0449508946785937 
J-10 0.0449508946785937 
J-10 0.0449508946785937 
J-10 0.0449508946785937 
J-13 0.0730235153505778 
J-14 0.0449508946785937 
J-14 0.0449508946785937 
J-14 0.0449508946785937 
J-15 0.0449508946785937 
J-15 0.0449508946785937 
J-15 0.0449508946785937 
J-15 0.0449508946785937 
J-15 0.0449508946785937 
J-15 0.0449508946785937 
J-16 0.0449508946785937 
J-16 0.0449508946785937 
J-16 0.0449508946785937 
J-16 0.0449508946785937 
J-16 0.0449508946785937 
J-17 0.0449508946785937 
J-17 0.0449508946785937 
J-17 0.0449508946785937 
J-17 0.0449508946785937 
J-17 0.0449508946785937 
J-17 0.0449508946785937 
J-17 0.0449508946785937 
J-17 0.0449508946785937 
J-17 0.0449508946785937 
J-17 0.0449508946785937 
J-17 0.0449508946785937 
J-18 0.0449508946785937 
J-18 0.0449508946785937 
J-18 0.0449508946785937 
J-18 0.0449508946785937 
J-18 0.0449508946785937 
J-18 0.0449508946785937 
J-18 0.0449508946785937 
J-18 0.0449508946785937 
J-18 0.0449508946785937 
J-18 0.0449508946785937 
J-18 0.0449508946785937 
J-18 0.0449508946785937 
J-18 0.0449508946785937 
J-18 0.0449508946785937 
J-19 0.22231811053776 
J-19 0.0449508946785937 
J-19 0.0449508946785937 
J-19 0.0449508946785937 
J-20 0.0449508946785937 
J-20 0.0449508946785937 
J-20 0.0449508946785937 
J-20 0.0449508946785937 
J-20 0.0449508946785937 
J-20 0.0449508946785937 
J-20 0.0449508946785937 
J-20 0.0449508946785937 
J-20 0.0449508946785937 
J-20 0.0449508946785937 
J-20 0.0449508946785937 
J-20 0.0449508946785937 
J-20 0.0449508946785937 
J-21 0.0449508946785937 
J-21 0.0449508946785937 
J-21 0.0449508946785937 
J-21 0.0449508946785937 
J-21 0.0449508946785937 
J-21 0.0449508946785937 
J-21 0.0449508946785937 
J-21 0.0449508946785937 
J-22 0.0449508946785937 
J-22 0.0449508946785937 
J-22 0.0449508946785937 
J-22 0.0449508946785937 
J-22 0.0449508946785937 
J-22 0.0449508946785937 
J-22 0.0449508946785937 
J-22 0.0449508946785937 
J-22 0.0449508946785937 
J-22 0.0449508946785937 
J-23 0.0449508946785937 
J-23 0.0449508946785937 
J-23 0.0449508946785937 
J-23 0.0449508946785937 
J-23 0.0449508946785937 
J-23 0.0449508946785937 
J-23 0.0449508946785937 
J-23 0.0449508946785937 
J-23 0.0449508946785937 
J-23 0.0449508946785937 
J-24 0.00186163504609117 
J-24 0.0449508946785937 
J-24 0.0449508946785937 
J-24 0.0449508946785937 
J-24 0.0113579468806888 
J-25 0.0449508946785937 
J-25 0.0449508946785937 
J-25 0.0449508946785937 
J-26 0.0449508946785937 
J-26 0.0449508946785937 
J-26 0.0449508946785937 
J-26 0.0449508946785937 
J-26 0.0508432497612668 
J-27 0.0449508946785937 
J-27 0.0449508946785937 
J-27 0.0449508946785937 
J-27 0.0449508946785937 
J-27 0.0449508946785937 
J-27 0.0449508946785937 
J-27 0.0449508946785937 
J-27 0.0449508946785937 
J-27 0.0449508946785937 
J-28 0.0449508946785937 
J-28 0.0449508946785937 
J-28 0.0449508946785937 
J-30 0.0449508946785937 
J-30 0.0449508946785937 
J-30 0.0449508946785937 
J-30 0.0449508946785937 
J-30 0.0449508946785937 
J-32 0.0449508946785937 
J-32 0.0449508946785937 
J-32 0.0449508946785937 
J-32 0.0449508946785937 
J-32 0.0449508946785937 
J-32 0.0449508946785937 
J-32 0.0449508946785937 
J-32 0.0449508946785937 
J-32 0.0449508946785937 
J-32 0.0449508946785937 
J-32 0.0449508946785937 
J-32 0.0449508946785937 
J-36 0.0449508946785937 
J-36 0.0449508946785937 
J-36 0.0449508946785937 
J-36 0.0449508946785937 
J-37 0.0449508946785937 
J-37 0.0449508946785937 
J-37 0.0449508946785937 
J-39 0.0449508946785937 
J-39 0.0449508946785937 
J-40 0.0449508946785937 
J-40 0.0449508946785937 
J-40 0.0449508946785937 
J-40 0.282618091204167 
J-41 0.0449508946785937 
J-41 0.0449508946785937 
J-41 0.0449508946785937 
J-41 0.0449508946785937 
J-41 0.0449508946785937 
J-41 0.404989242484796 
J-41 0.0449508946785937 
J-41 0.0449508946785937 
J-41 0.0449508946785937 
J-42 0.0449508946785937 
J-42 0.0449508946785937 
J-42 0.0449508946785937 
J-42 0.0449508946785937 
J-42 0.0449508946785937 
J-42 0.0449508946785937 
J-42 0.0449508946785937 
J-42 0.0449508946785937 
J-42 0.0449508946785937 
J-43 0.0449508946785937 
J-43 0.0449508946785937 
J-43 0.0449508946785937 
J-43 0.0449508946785937 
J-43 0.00485317323404102 
J-43 0.0449508946785937 
J-43 0.0449508946785937 
J-43 0.0449508946785937 
J-43 0.0449508946785937 
J-43 0.0449508946785937 
J-43 0.0449508946785937 
J-44 0.0449508946785937 
J-44 0.0449508946785937 
J-44 0.0449508946785937 
J-44 0.0449508946785937 
J-44 0.0449508946785937 
J-44 0.0449508946785937 
J-45 0.0449508946785937 
J-45 0.0449508946785937 
J-45 0.0449508946785937 
J-46 0.0670719276356564 
J-46 0.0449508946785937 
J-46 0.0449508946785937 
J-46 0.0449508946785937 
J-46 0.0449508946785937 
J-47 0.0449508946785937 
J-47 0.0449508946785937 
J-47 0.0449508946785937 
J-47 0.0449508946785937 
J-47 0.0449508946785937 
J-47 0.0449508946785937 
J-47 0.0449508946785937 
J-47 0.0449508946785937 
J-47 0.0449508946785937 
J-47 0.0449508946785937 
J-48 0.0449508946785937 
J-48 0.0449508946785937 
J-48 0.0449508946785937 
J-48 0.0449508946785937 
J-48 0.0449508946785937 
J-48 0.0449508946785937 
J-48 0.0449508946785937 
J-48 0.0449508946785937 
J-48 0.0449508946785937 
J-49 0.0449508946785937 
J-49 0.0449508946785937 
J-49 0.0449508946785937 
J-49 0.0449508946785937 
J-49 0.0449508946785937 
J-49 0.0449508946785937 
J-49 0.0449508946785937 
J-49 0.0449508946785937 
J-49 0.0449508946785937 
J-49 0.0449508946785937 
J-49 0.0449508946785937 
J-49 0.0449508946785937 
J-49 0.0449508946785937 
J-49 0.0449508946785937 
J-49 0.0449508946785937 
J-49 0.0449508946785937 
J-50 0.27774536549375 
J-50 0.0449508946785937 
J-50 0.0449508946785937 
J-50 0.0449508946785937 
J-50 0.0449508946785937 
J-50 0.0449508946785937 
J-50 0.0449508946785937 
J-50 0.0449508946785937 
J-51 0.00362855227792301 
J-51 0.0449508946785937 
J-51 0.0449508946785937 
J-51 0.0449508946785937 
J-51 0.0449508946785937 
J-51 0.0449508946785937 
J-51 0.0449508946785937 
J-51 0.0449508946785937 
J-51 0.0449508946785937 
J-51 0.0449508946785937 
J-51 0.0449508946785937 
J-52 0.0449508946785937 
J-52 0.0449508946785937 
J-52 0.0449508946785937 
J-52 0.0449508946785937 
J-52 0.0449508946785937 
J-52 0.0449508946785937 
J-52 0.0449508946785937 
J-52 0.0449508946785937 
J-52 0.0449508946785937 
J-52 0.0449508946785937 
J-53 0.034336638699956 
J-54 0.0449508946785937 
J-54 0.0449508946785937 
J-54 0.0449508946785937 
J-54 0.0449508946785937 
J-54 0.0449508946785937 
J-55 0.0449508946785937 
J-55 0.0449508946785937 
J-55 0.0449508946785937 
J-55 0.0449508946785937 
J-55 0.0449508946785937 
J-55 0.0449508946785937 
J-55 0.0449508946785937 
J-55 0.0449508946785937 
J-55 0.0449508946785937 
J-55 0.0449508946785937 
J-55 0.0449508946785937 
J-55 0.0449508946785937 
J-55 0.0449508946785937 
J-55 0.0449508946785937 
J-56 0.27894468902988 
J-57 0.0449508946785937 
J-57 0.0449508946785937 
J-57 0.0449508946785937 
J-57 0.0449508946785937 
J-57 0.0449508946785937 
J-57 0.0449508946785937 
J-57 0.0449508946785937 
J-57 0.0449508946785937 
J-57 0.0449508946785937 
J-57 0.0449508946785937 
J-57 0.0449508946785937 
J-57 0.0449508946785937 
J-57 0.00634618702311424 
J-57 0.0449508946785937 
J-57 0.0449508946785937 
J-57 0.0449508946785937 
J-57 0.0449508946785937 
J-58 0.0449508946785937 
J-58 0.0449508946785937 
J-58 0.0449508946785937 
J-58 0.0449508946785937 
J-58 0.0449508946785937 
J-58 0.0449508946785937 
J-58 0.0449508946785937 
J-58 0.0449508946785937 
J-58 0.0449508946785937 
J-58 0.0449508946785937 
J-58 0.0449508946785937 
J-58 0.0449508946785937 
J-58 0.0449508946785937 
J-58 0.0449508946785937 
J-58 0.0449508946785937 
J-59 0.0449508946785937 
J-59 0.0449508946785937 
J-59 0.0449508946785937 
J-59 0.0449508946785937 
J-59 0.0449508946785937 
J-59 0.0449508946785937 
J-59 0.0449508946785937 
J-59 0.0449508946785937 
J-59 0.0449508946785937 
J-59 0.0449508946785937 
J-59 0.0449508946785937 
J-59 0.0449508946785937 
J-60 0.0449508946785937 
J-60 0.0449508946785937 
J-60 0.0449508946785937 
J-60 0.0449508946785937 
J-60 0.0449508946785937 
J-60 0.0449508946785937 
J-60 0.0449508946785937 
J-60 0.0449508946785937 
J-60 0.0449508946785937 
J-60 0.0449508946785937 
J-60 0.0449508946785937 
J-60 0.0449508946785937 
J-60 0.0449508946785937 
J-60 0.0449508946785937 
J-60 0.0449508946785937 
J-60 31.3888888888889 
J-61 0.0449508946785937 
J-61 0.0449508946785937 
J-61 0.0449508946785937 
J-61 0.0449508946785937 
J-61 0.0449508946785937 
J-61 0.0449508946785937 
J-61 0.0449508946785937 
J-61 0.0449508946785937 
J-61 0.0449508946785937 
J-61 0.0449508946785937 
J-61 0.0449508946785937 
J-61 0.0449508946785937 
J-61 0.0449508946785937 
J-62 0.0449508946785937 
J-62 0.0449508946785937 
J-62 0.0449508946785937 
J-62 0.0449508946785937 
J-62 0.0449508946785937 
J-62 0.0449508946785937 
J-62 0.0449508946785937 
J-62 0.0449508946785937 
J-62 0.0449508946785937 
J-62 0.0449508946785937 
J-63 0.0449508946785937 
J-63 0.0449508946785937 
J-63 0.0449508946785937 
J-63 0.0449508946785937 
J-63 0.0449508946785937 
J-63 0.0449508946785937 
J-63 0.0449508946785937 
J-63 0.0449508946785937 
J-63 0.0449508946785937 
J-63 0.0449508946785937 
J-63 0.0449508946785937 
J-64 0.0449508946785937 
J-64 0.0449508946785937 
J-64 0.0449508946785937 
J-64 0.0449508946785937 
J-64 0.0449508946785937 
J-64 0.0449508946785937 
J-64 0.0449508946785937 
J-65 0.0449508946785937 
J-65 0.0449508946785937 
J-65 0.0449508946785937 
J-65 0.0449508946785937 
J-65 0.0449508946785937 
J-65 0.0449508946785937 
J-65 0.0449508946785937 
J-65 0.0449508946785937 
J-66 0.0449508946785937 
J-66 0.0449508946785937 
J-66 0.0449508946785937 
J-66 0.0449508946785937 
J-66 0.0449508946785937 
J-66 0.0449508946785937 
J-66 0.0449508946785937 
J-66 0.0449508946785937 
J-66 0.0449508946785937 
J-66 0.0449508946785937 
J-66 0.0449508946785937 
J-66 0.0449508946785937 
J-67 0.0449508946785937 
J-67 0.0449508946785937 
J-67 0.0449508946785937 
J-67 0.0449508946785937 
J-67 0.0449508946785937 
J-67 0.0449508946785937 
J-67 0.0449508946785937 
J-68 0.0449508946785937 
J-68 0.0449508946785937 
J-68 0.0449508946785937 
J-68 0.0449508946785937 
J-68 0.0449508946785937 
J-69 0.00243636285520833 
J-69 0.0449508946785937 
J-69 0.0449508946785937 
J-69 0.0449508946785937 
J-69 0.0449508946785937 
J-69 0.0449508946785937 
J-69 0.0449508946785937 
J-69 0.0449508946785937 
J-69 0.0449508946785937 
J-69 0.0449508946785937 
J-69 0.0449508946785937 
J-69 0.0449508946785937 
J-69 0.0449508946785937 
J-70 0.0449508946785937 
J-70 0.0449508946785937 
J-70 0.0449508946785937 
J-70 0.0449508946785937 
J-70 0.0449508946785937 
J-70 0.0449508946785937 
J-70 0.0449508946785937 
J-70 0.0449508946785937 
J-70 0.0449508946785937 
J-70 0.0449508946785937 
J-70 0.0449508946785937 
J-70 0.0449508946785937 
J-70 0.0449508946785937 
J-71 0.0449508946785937 
J-71 0.0449508946785937 
J-71 0.0449508946785937 
J-71 0.0449508946785937 
J-71 0.0449508946785937 
J-71 0.0449508946785937 
J-71 0.0449508946785937 
J-71 0.0449508946785937 
J-71 0.0449508946785937 
J-71 0.0449508946785937 
J-72 0.213181749830729 
J-73 0.0449508946785937 
J-73 0.0449508946785937 
J-73 0.0449508946785937 
J-73 0.0449508946785937 
J-74 0.0449508946785937 
J-74 0.0449508946785937 
J-74 0.0449508946785937 
J-74 0.0449508946785937 
J-74 0.0449508946785937 
J-74 0.0449508946785937 
J-74 0.0449508946785937 
J-74 0.0449508946785937 
J-74 0.0449508946785937 
J-74 0.0449508946785937 
J-74 0.0449508946785937 
J-75 0.0560899292625289 
J-75 0.0449508946785937 
J-75 0.0449508946785937 
J-75 0.0449508946785937 
J-76 0.0449508946785937 
J-76 0.0449508946785937 
J-76 0.0119056436869025 
J-77 0.0449508946785937 
J-77 0.0449508946785937 
J-77 0.224830652036313 
J-78 0.0449508946785937 
J-78 0.0449508946785937 
J-78 0.0449508946785937 
J-78 0.0449508946785937 
J-78 0.218054475541146 
J-78 0.0449508946785937 
J-78 0.0449508946785937 
J-78 0.0449508946785937 
J-78 0.0449508946785937 
J-79 0.0449508946785937 
J-79 0.0449508946785937 
J-79 0.0449508946785937 
J-79 0.0449508946785937 
J-79 0.0449508946785937 
J-80 0.0449508946785937 
J-80 0.0449508946785937 
J-80 0.0449508946785937 
J-80 0.0449508946785937 
J-80 0.0449508946785937 
J-80 0.0449508946785937 
J-81 0.0449508946785937 
J-81 0.0449508946785937 
J-81 0.0449508946785937 
J-82 0.0791817927942708 
J-82 0.0449508946785937 
J-82 0.0449508946785937 
J-82 0.0449508946785937 
J-82 0.0449508946785937 
J-82 0.0449508946785937 
J-82 0.0449508946785937 
J-82 0.0449508946785937 
J-82 0.0449508946785937 
J-83 0.0449508946785937 
J-83 0.0449508946785937 
J-83 0.0449508946785937 
J-83 0.0449508946785937 
J-83 0.0449508946785937 
J-84 0.0449508946785937 
J-84 0.0449508946785937 
J-84 0.0449508946785937 
J-85 0.0449508946785937 
J-85 0.0449508946785937 
J-85 0.0449508946785937 
J-85 0.0449508946785937 
J-85 0.0449508946785937 
J-85 0.0449508946785937 
J-85 0.0449508946785937 
J-85 0.0449508946785937 
J-85 0.0449508946785937 
J-85 0.0449508946785937 
J-86 0.0449508946785937 
J-86 0.0449508946785937 
J-86 0.0449508946785937 
J-86 0.0449508946785937 
J-86 0.0449508946785937 
J-86 0.0449508946785937 
J-86 0.0449508946785937 
J-86 0.0449508946785937 
J-86 0.0449508946785937 
J-86 0.0449508946785937 
J-86 0.0449508946785937 
J-86 0.0449508946785937 
J-86 0.0449508946785937 
J-86 0.0449508946785937 
J-86 0.0449508946785937 
J-87 0.0449508946785937 
J-87 0.0449508946785937 
J-87 0.0449508946785937 
J-87 0.0449508946785937 
J-87 0.0449508946785937 
J-87 0.0449508946785937 
J-87 0.0449508946785937 
J-87 0.0449508946785937 
J-87 0.0449508946785937 
J-87 0.0449508946785937 
J-87 0.0449508946785937 
J-87 0.0449508946785937 
J-87 0.0449508946785937 
J-87 0.0449508946785937 
J-87 0.0449508946785937 
J-88 0.0449508946785937 
J-88 0.0449508946785937 
J-88 0.0449508946785937 
J-88 0.0449508946785937 
J-88 0.0449508946785937 
J-88 0.0449508946785937 
J-88 0.0449508946785937 
J-88 0.0449508946785937 
J-88 0.0449508946785937 
J-88 0.0449508946785937 
J-89 0.0449508946785937 
J-89 0.0449508946785937 
J-89 0.0449508946785937 
J-89 0.0449508946785937 
J-89 0.0449508946785937 
J-89 0.0449508946785937 
J-89 0.0449508946785937 
J-89 0.0449508946785937 
J-89 0.0449508946785937 
J-89 0.0449508946785937 
J-89 0.0449508946785937 
J-89 0.0449508946785937 
J-90 0.0449508946785937 
J-90 0.0449508946785937 
J-90 0.0449508946785937 
J-90 0.0449508946785937 
J-90 0.0449508946785937 
J-90 0.0449508946785937 
J-90 0.0449508946785937 
J-91 0.0449508946785937 
J-91 0.0449508946785937 
J-91 0.0449508946785937 
J-91 0.0449508946785937 
J-92 0.0449508946785937 
J-92 0.0449508946785937 
J-92 0.0449508946785937 
J-92 0.0449508946785937 
J-92 0.0449508946785937 
J-93 2.05835296340555 
J-93 0.0449508946785937 
J-93 0.0449508946785937 
J-93 0.0449508946785937 
J-93 0.0449508946785937 
J-93 0.0449508946785937 
J-93 0.0449508946785937 
J-93 0.0449508946785937 
J-94 0.0449508946785937 
J-94 0.0449508946785937 
J-94 0.0449508946785937 
J-94 0.0449508946785937 
J-94 0.0449508946785937 
J-94 0.0449508946785937 
J-94 0.0449508946785937 
J-94 0.0449508946785937 
J-94 0.0449508946785937 
J-95 0.0449508946785937 
J-95 0.0449508946785937 
J-95 0.0449508946785937 
J-95 0.0449508946785937 
J-95 0.0449508946785937 
J-95 0.0449508946785937 
J-95 0.0449508946785937 
J-95 0.0449508946785937 
J-95 0.0449508946785937 
J-95 0.0449508946785937 
J-95 0.0449508946785937 
J-95 0.0449508946785937 
J-96 0.0449508946785937 
J-96 0.0449508946785937 
J-96 0.0449508946785937 
J-96 0.0449508946785937 
J-97 0.0449508946785937 
J-97 0.0449508946785937 
J-97 0.0449508946785937 
J-97 0.0449508946785937 
J-97 0.0449508946785937 
J-97 0.0449508946785937 
J-97 0.0449508946785937 
J-97 0.0449508946785937 
J-97 0.0449508946785937 
J-97 0.0449508946785937 
J-97 0.0449508946785937 
J-97 0.0449508946785937 
J-97 0.0449508946785937 
J-97 0.0449508946785937 
J-97 0.0449508946785937 
J-97 0.0449508946785937 
J-97 0.0449508946785937 
J-97 0.0449508946785937 
J-97 0.0449508946785937 
J-97 0.0449508946785937 
J-98 0.0449508946785937 
J-98 0.0449508946785937 
J-98 0.0449508946785937 
J-98 0.0449508946785937 
J-98 0.0449508946785937 
J-98 0.0449508946785937 
J-98 0.0449508946785937 
J-98 0.0449508946785937 
J-98 0.0449508946785937 
J-98 0.0449508946785937 
J-98 0.0449508946785937 
J-99 0.0449508946785937 
J-99 0.0449508946785937 
J-99 0.0449508946785937 
J-99 0.0449508946785937 
J-99 0.0449508946785937 
J-99 0.0449508946785937 
J-99 0.0449508946785937 
J-99 0.0449508946785937 
J-99 0.0449508946785937 
J-99 0.0449508946785937 
J-99 0.0449508946785937 
J-99 0.0449508946785937 
J-99 0.0449508946785937 
J-99 0.0449508946785937 
J-99 0.0449508946785937 
J-99 0.0449508946785937 
J-99 0.0449508946785937 
J-99 0.0449508946785937 
J-99 31.3888888888889 
J-100 0.0449508946785937 
J-100 0.0449508946785937 
J-100 0.0449508946785937 
J-100 0.0449508946785937 
J-100 0.0449508946785937 
J-100 0.0449508946785937 
J-100 0.0449508946785937 
J-100 0.0449508946785937 
J-100 0.0449508946785937 
J-100 0.0449508946785937 
J-100 0.0449508946785937 
J-100 0.0449508946785937 
J-100 0.0449508946785937 
J-100 0.0449508946785937 
J-101 0.0449508946785937 
J-101 0.0449508946785937 
J-101 0.0449508946785937 
J-101 0.0449508946785937 
J-101 0.0449508946785937 
J-101 0.0449508946785937 
J-101 0.0449508946785937 
J-101 0.0449508946785937 
J-101 0.0449508946785937 
J-101 0.0449508946785937 
J-101 0.0449508946785937 
J-101 0.0449508946785937 
J-101 0.0449508946785937 
J-101 0.0449508946785937 
J-101 0.0449508946785937 
J-101 0.0449508946785937 
J-102 0.0449508946785937 
J-102 0.0449508946785937 
J-102 0.0449508946785937 
J-102 0.0449508946785937 
J-102 0.0166485542257178 
J-103 0.0449508946785937 
J-103 0.0449508946785937 
J-103 0.0449508946785937 
J-103 0.0449508946785937 
J-104 0.0449508946785937 
J-104 0.0449508946785937 
J-104 0.0449508946785937 
J-104 0.0449508946785937 
J-104 0.0449508946785937 
J-104 0.0449508946785937 
J-104 0.0449508946785937 
J-104 0.0449508946785937 
J-104 0.0449508946785937 
J-104 0.0449508946785937 
J-104 0.0449508946785937 
J-105 0.0449508946785937 
J-105 0.0449508946785937 
J-105 0.0449508946785937 
J-105 0.0449508946785937 
J-105 0.0449508946785937 
J-105 0.0449508946785937 
J-105 0.0449508946785937 
J-106 0.0449508946785937 
J-106 0.0449508946785937 
J-106 0.0449508946785937 
J-106 0.0449508946785937 
J-106 0.0449508946785937 
J-106 0.0449508946785937 
J-106 0.0449508946785937 
J-106 0.0449508946785937 
J-106 0.0449508946785937 
J-106 0.0449508946785937 
J-106 0.0449508946785937 
J-106 0.0449508946785937 
J-106 0.0449508946785937 
J-108 0.0449508946785937 
J-108 0.0449508946785937 
J-108 0.0449508946785937 
J-108 0.0449508946785937 
J-108 0.0449508946785937 
J-108 0.0449508946785937 
J-108 0.0449508946785937 
J-108 0.0449508946785937 
J-108 0.0449508946785937 
J-108 0.0449508946785937 
J-108 0.0449508946785937 
J-109 0.0449508946785937 
J-109 0.0449508946785937 
J-109 0.0449508946785937 
J-109 0.0449508946785937 
J-109 0.0449508946785937 
J-109 0.0449508946785937 
J-109 0.0449508946785937 
J-109 0.0449508946785937 
J-109 0.0449508946785937 
J-109 0.0449508946785937 
J-109 0.0449508946785937 
J-109 0.0449508946785937 
J-109 0.0449508946785937 
J-109 0.0449508946785937 
J-109 0.0449508946785937 
J-109 0.0449508946785937 
J-109 0.0449508946785937 
J-109 0.0449508946785937 
J-109 0.0449508946785937 
J-110 0.0449508946785937 
J-110 0.0449508946785937 
J-110 0.0449508946785937 
J-110 0.0449508946785937 
J-110 0.0449508946785937 
J-110 0.0449508946785937 
J-110 0.0449508946785937 
J-110 0.0449508946785937 
J-110 0.0449508946785937 
J-111 0.0449508946785937 
J-111 0.0449508946785937 
J-111 0.0449508946785937 
J-111 0.0449508946785937 
J-111 0.0449508946785937 
J-111 0.0449508946785937 
J-111 0.0449508946785937 
J-111 0.0449508946785937 
J-111 0.0449508946785937 
J-111 0.0449508946785937 
J-111 0.0449508946785937 
J-111 0.0449508946785937 
J-112 0.0449508946785937 
J-112 0.0449508946785937 
J-112 0.0449508946785937 
J-112 0.0449508946785937 
J-112 0.0449508946785937 
J-112 0.0449508946785937 
J-112 0.0449508946785937 
J-112 0.0449508946785937 
J-112 0.0449508946785937 
J-112 0.0449508946785937 
J-112 0.0449508946785937 
J-112 0.0449508946785937 
J-112 0.0449508946785937 
J-112 0.0449508946785937 
J-113 0.0449508946785937 
J-113 0.0449508946785937 
J-113 0.0449508946785937 
J-113 0.0449508946785937 
J-113 0.0449508946785937 
J-113 0.0449508946785937 
J-113 0.0449508946785937 
J-113 0.0449508946785937 
J-113 0.0449508946785937 
J-113 0.0449508946785937 
J-114 0.0286919042420222 
J-114 0.087709018268506 
J-114 0.0449508946785937 
J-114 0.0449508946785937 
J-114 0.0449508946785937 
J-115 0.464268086334801 
J-115 0.0449508946785937 
J-115 0.0449508946785937 
J-115 0.0449508946785937 
J-115 0.0449508946785937 
J-115 0.0449508946785937 
J-115 0.0449508946785937 
J-115 0.0449508946785937 
J-115 0.0449508946785937 
J-115 0.0449508946785937 
J-116 0.0449508946785937 
J-116 0.0449508946785937 
J-116 0.0449508946785937 
J-117 0.0449508946785937 
J-117 0.0449508946785937 
J-117 0.0449508946785937 
J-117 0.0449508946785937 
J-118 0.0449508946785937 
J-118 0.0449508946785937 
J-118 0.0449508946785937 
J-118 0.0449508946785937 
J-118 0.0449508946785937 
J-118 0.0449508946785937 
J-119 0.0449508946785937 
J-119 0.0449508946785937 
J-119 0.0449508946785937 
J-119 0.0449508946785937 
J-119 0.0449508946785937 
J-119 0.0449508946785937 
J-119 0.0449508946785937 
J-119 0.0449508946785937 
J-119 0.0449508946785937 
J-119 0.0449508946785937 
J-119 0.0449508946785937 
J-120 0.0449508946785937 
J-120 0.0449508946785937 