[TITLE]
Scenario: Base 
Date: 13/09/2009 12:22:45 م 

[CURVES]
26 12.62 30 

[JUNCTIONS]
28 0 0 
30 0 0 
32 0 0 
34 0 0 
36 0 0 
26-A 0 0 
26-B 0 0 

[RESERVOIRS]
24 0 

[DEMANDS]
30 3.6 
32 2.7 
34 3.4 
36 2.92 

[EMITTERS]

[PUMPS]
26 26-A 26-B HEAD 26 SPEED 1  

[PIPES]
27 24 26-A 3.4834285714425 100 130 0 
29 26-B 28 100 100 130 0 
31 28 30 2.5 80 130 0 
33 30 32 124 80 130 0 
35 32 34 60 80 130 0 
37 34 36 77 80 130 0 
38 36 28 20 80 130 0 

[COORDINATES]
28 -12.3552857143351 3.15685714286977  
30 5.60614285716528 -15.6754285714913  
32 6.03136607145271 -65.9606250002638  
34 -47.9055410158166 -67.8741294645573  
36 -48.9021579243027 -19.372106584899  
24 -12.2464285714776 20.5740000000823  
26-A -12.2464285714776 17.0905714286398  
26-B -12.2464285714776 17.0905714286398  

[VERTICES]
31 5.06185714287738 2.93914285715461
35 5.57956640627234 -93.4539634490346
35 -48.2377466519786 -93.7861690851966
38 -49.2343635604648 2.88567103795786

[OPTIONS]
UNITS LPS 
TRIALS 40 
ACCURACY 0.001 
EMITTER 0.5 
SPECIFIC GRAVITY 0.998 
HEADLOSS H-W 
QUALITY NONE 

[TIMES]
REPORT START 0  
QUALITY TIMESTEP 0  

