[TITLE]
Scenario: NEW MP AVG.FLOW +F.F  J 870 &  J598 
Date: 10/01/2018 3:16:10 PM 

[CURVES]
;PUMP:
2088 345.208333333333 44
;EFFICIENCY:
2088E 0 100

[JUNCTIONS]
48 1997.81457519531 0 
49 2003.18859863281 0 
50 1992.13757324219 0 
51 2007.78308105469 0 
53 1998.5 0 
54 2003.69409179688 0 
56 2001.25537109375 0 
59 1995.14660644531 0 
60 1999.49829101563 0 
61 2001.07482910156 0 
62 2016.66088867188 0 
63 2015.36865234375 0 
64 2012.01599121094 0 
65 2006.64990234375 0 
66 2002.42236328125 0 
67 1997.92504882813 0 
68 1997.01977539063 0 
69 1994.52294921875 0 
71 2000.18286132813 0 
73 2020.7216796875 0 
74 1994.01989746094 0 
75 2007 0 
76 1998.44152832031 0 
77 2015.08032226563 0 
78 2004.32507324219 0 
79 2012.15808105469 0 
81 2007.96154785156 0 
82 1996.50805664063 0 
85 1992.62426757813 0 
86 2008.01721191406 0 
87 2006.96179199219 0 
88 1997.86279296875 0 
89 1997.87512207031 0 
90 1998.70642089844 0 
91 1996.54443359375 0 
92 2015.74255371094 0 
93 1995.5 0 
94 2002.24914550781 0 
95 2007.48645019531 0 
96 2013.17211914063 0 
97 1994.58251953125 0 
98 2006.14672851563 0 
100 2003.06372070313 0 
101 2009.76550292969 0 
102 1997.44775390625 0 
103 2014.21594238281 0 
104 2006.10375976562 0 
106 2021.06860351563 0 
107 1992.0576171875 0 
109 2002.76672363281 0 
110 2012.71899414063 0 
111 2013.30615234375 0 
112 2006.17016601563 0 
113 1988.66137695313 0 
114 1994.68090820313 0 
115 1996.35791015625 0 
116 1998.63293457031 0 
117 1996.83679199219 0 
118 2015.21606445313 0 
119 1995.5 0 
120 2008.16149902344 0 
121 2000.99877929688 0 
122 2009.90197753906 0 
123 2006.15222167969 0 
125 2007.908203125 0 
126 2007.88061523438 0 
127 2003.251953125 0 
128 2001.48962402344 0 
129 2003.14807128906 0 
130 1991.96997070313 0 
131 2015.48620605469 0 
132 2017.47338867188 0 
135 2004.32946777344 0 
137 2010.56616210938 0 
138 2004.84387207031 0 
139 1995.17883300781 0 
140 2003.96374511719 0 
141 2002.08850097656 0 
142 2016.77746582031 0 
143 2015.39904785156 0 
146 2003.63732910156 0 
150 2007.13269042969 0 
151 1995.75280761719 0 
152 1997 0 
154 1999.24865722656 0 
155 2003.78210449219 0 
156 2011.22619628906 0 
157 2005.23486328125 0 
158 2017.27526855469 0 
159 1993 0 
162 2006.47705078125 0 
163 2013.34118652344 0 
164 2011.43713378906 0 
165 1996.75512695313 0 
166 2001.34326171875 0 
167 1997 0 
168 1998.00634765625 0 
169 1994.5 0 
170 1992.67712402344 0 
171 1989.84619140625 0 
172 2008.10705566406 0 
173 2020.513671875 0 
174 2003.58532714844 0 
175 1997 0 
176 2015.16577148438 0 
180 2003 0 
181 1989.73010253906 0 
182 1998.728515625 0 
183 1997.9169921875 0 
184 1994.61267089844 0 
186 1995.21215820313 0 
187 2012.50549316406 0 
188 2012.81909179688 0 
189 2006.27197265625 0 
190 1992.41467285156 0 
192 1998.6904296875 0 
193 1996.77465820313 0 
194 2020.365234375 0 
195 2008.34912109375 0 
196 1999.64367675781 0 
198 2008.45751953125 0 
199 2007.28442382813 0 
200 1993.62170410156 0 
201 1997 0 
203 1996.11596679688 0 
204 2007.97509765625 0 
205 1998.89929199219 0 
207 1992.80981445313 0 
208 1995.5 0 
209 1993.64721679688 0 
210 1999.19812011719 0 
211 2020.34252929688 0 
213 2007.98559570313 0 
214 2017.86340332031 0 
215 2002.31896972656 0 
216 2008.927734375 0 
217 1992.42993164062 0 
218 2013.40246582031 0 
219 1996.5 0 
220 2003.66638183594 0 
221 1997.69519042969 0 
222 2016.00610351562 0 
223 2009.982421875 0 
224 2015.37951660156 0 
225 2018.90014648438 0 
226 2011.21936035156 0 
227 2013.46423339844 0 
228 2008.75268554688 0 
229 2005.89221191406 0 
230 2004.244140625 0 
233 1996.98522949219 0 
234 2007.75 0 
235 2011.9140625 0 
236 2005.5 0 
237 2006.53381347656 0 
238 2012.51013183594 0 
239 1997.55749511719 0 
240 2016.01806640625 0 
241 1995.16101074219 0 
242 2006.45971679688 0 
243 2000.83703613281 0 
244 2006.4873046875 0 
246 1992.3935546875 0 
248 1999.5 0 
249 1995.58361816406 0 
250 2012.37854003906 0 
252 2020.70764160156 0 
253 2017.60046386719 0 
254 2015.63659667969 0 
255 2006.95642089844 0 
258 1996.5 0 
259 1999.5205078125 0 
261 1994.35119628906 0 
262 1999 0 
263 2000.07397460938 0 
264 2005.99853515625 0 
265 1994.16845703125 0 
266 2014.67456054688 0 
267 1993.66467285156 0 
268 1999 0 
269 2015.85656738281 0 
272 1986.4462890625 0 
273 1996.84130859375 0 
274 1990.71484375 0 
275 2009.03295898438 0 
276 2007.52563476563 0 
277 1992.47998046875 0 
278 2007.48278808594 0 
279 1996.0478515625 0 
281 1996.77905273438 0 
282 2015.70727539063 0 
283 2002.49169921875 0 
284 2018.98364257813 0 
285 1998.23937988281 0 
286 1998.892578125 0 
287 1994.615234375 0 
288 2006.56994628906 0 
289 2007.06335449219 0 
290 2001.72839355469 0 
292 1995.30090332031 0 
293 2001.23486328125 0 
294 1995.95373535156 0 
295 2007.98022460938 0 
296 1997.79028320313 0 
298 1992.5546875 0 
299 2009.43212890625 0 
300 2017.77465820313 0 
301 2013.45336914063 0 
302 2012.24938964844 0 
303 1997.7490234375 0 
304 2007.49450683594 0 
305 2007.54321289062 0 
307 1999 0 
309 2003.35192871094 0 
310 2008.18127441406 0 
311 1988.51989746094 0 
313 1996.69006347656 0 
314 2002.97241210938 0 
315 1997.71728515625 0 
317 2012.46301269531 0 
318 2012.96215820313 0 
319 2008.52038574219 0 
320 2011.56481933594 0 
321 2007.5673828125 0 
323 2003.47619628906 0 
324 2017.14624023437 0 
325 1993.5 0 
327 2001.43957519531 0 
328 2006.24792480469 0 
329 2006.54443359375 0 
330 1998.86730957031 0 
332 1997.8115234375 0 
333 1995 0 
334 2021.4638671875 0 
335 2010.3447265625 0 
337 1998.37536621094 0 
339 2000.86560058594 0 
340 2009.06091308594 0 
342 1996.9423828125 0 
343 1998.5546875 0 
344 1999.27075195313 0 
345 2009.48779296875 0 
346 2012.71398925781 0 
347 2000.91833496094 0 
348 1998.32421875 0 
349 1995.42175292969 0 
350 2003.08728027344 0 
353 2020.81555175781 0 
354 2007.32788085938 0 
355 1996.1005859375 0 
357 2004.91882324219 0 
358 2009.14721679687 0 
359 1998.68505859375 0 
360 1990.56530761719 0 
361 1988.87536621094 0 
362 2001.81201171875 0 
363 2008.39562988281 0 
364 2005.45935058594 0 
365 1997.5966796875 0 
367 1995.73718261719 0 
368 2006.51928710937 0 
370 2006.5380859375 0 
371 2008.34802246094 0 
372 2012.55798339844 0 
373 1994.88989257813 0 
374 1996.33435058594 0 
376 1996.48010253906 0 
378 2007.83093261719 0 
380 2000.97741699219 0 
381 2007.33203125 0 
382 1995.45471191406 0 
383 2017 0 
384 2003.34619140625 0 
385 2008.12878417969 0 
386 1992.40734863281 0 
387 1994.67797851563 0 
389 2000.39465332031 0 
390 1995.85693359375 0 
391 1991.3681640625 0 
392 2012.82690429688 0 
393 2017.80114746094 0 
394 2000.38610839844 0 
395 2009.67700195313 0 
398 1992.33386230469 0 
400 2010 0 
401 1999.50915527344 0 
402 1990 0 
403 1989.11596679688 0 
404 2001.04357910156 0 
406 2005.13256835938 0 
407 2007.57666015625 0 
408 2012.83361816406 0 
409 2008.46215820313 0 
410 2007.56616210938 0 
411 2007.20056152344 0 
412 1991.87829589844 0 
414 2005.10278320312 0 
415 1999.07153320313 0 
417 2003.32897949219 0 
418 1996.67492675781 0 
420 1995 0 
421 1997.4013671875 0 
422 1996.98486328125 0 
423 2014.25109863281 0 
424 2017.93518066406 0 
425 1999 0 
426 2008.98791503906 0 
427 1992.35888671875 0 
428 2004.86938476563 0 
429 1996.5 0 
430 2004.90393066406 0 
431 1999.3720703125 0 
433 2007.5 0 
434 2009.95837402344 0 
435 1997.73034667969 0 
436 1994.86755371094 0 
437 2017.29016113281 0 
438 2000.47509765625 0 
440 2002.20617675781 0 
441 2010.5 0 
442 2005.3740234375 0 
443 2008.87646484375 0 
444 1988.59680175781 0 
446 1990.56579589844 0 
448 2002.037109375 0 
449 1995.28625488281 0 
450 2021.03784179688 0 
451 1997.73657226563 0 
452 2007.28247070313 0 
453 2010.76879882813 0 
454 1999.07592773438 0 
455 2019.10314941406 0 
456 1994.22644042969 0 
457 1993.26306152344 0 
458 2006.58715820313 0 
459 1998.95959472656 0 
460 2002.86682128906 0 
461 1998.669921875 0 
462 1999.671875 0 
463 1996 0 
464 2003.0166015625 0 
465 2002.5 0 
467 1999.5712890625 0 
468 1997.76416015625 0 
469 1996.2890625 0 
473 2003.87744140625 0 
474 2013.34619140625 0 
475 1992.36303710937 0 
476 1999.17651367188 0 
477 1996.19030761719 0 
478 1999.99389648438 0 
479 2009.48071289063 0 
481 1999 0 
482 2000.71362304688 0 
483 2007.15124511719 0 
484 2014.373046875 0 
485 1999.16076660156 0 
486 2019.94152832031 0 
488 2000.53820800781 0 
490 1997.47778320313 0 
491 1996.83557128906 0 
492 1989.7099609375 0 
498 2000.54748535156 0 
499 1996.70471191406 0 
500 2010.56335449219 0 
502 2018.93566894531 0 
503 1998.23693847656 0 
506 1999.50769042969 0 
507 2022.86157226562 0 
508 1991.24182128906 0 
510 2004.5 0 
512 1997.70471191406 0 
514 1987.39453125 0 
515 1995.642578125 0 
516 1998.45129394531 0 
517 2000.64123535156 0 
519 2008.15991210938 0 
521 2000.5 0 
522 2000.56420898438 0 
523 1997.50817871094 0 
524 1999.17309570313 0 
525 2009.96459960938 0 
526 2006.53686523438 0 
528 1993.67810058594 0 
529 2005.25659179688 0 
530 2006.44226074219 0 
531 2015.5 0 
532 1996.47119140625 0 
533 1995.26794433594 0 
534 1992.33056640625 0 
535 2002.78259277344 0 
537 1998.59643554688 0 
538 1997.64916992188 0 
540 1989.40002441406 0 
541 1993.49951171875 0 
542 2011.81164550781 0 
543 2005.5 0 
544 2007.67590332031 0 
546 2007.54931640625 0 
547 1990.30139160156 0 
548 1989.06323242188 0 
549 2000.47399902344 0 
554 2007.14416503906 0 
555 1996.06677246094 0 
556 2006.16577148438 0 
557 2000.07751464844 0 
558 2007.07885742188 0 
559 1996.09301757813 0 
561 2004.88952636719 0 
562 2004.66076660156 0 
563 2002.68908691406 0 
564 2008 0 
566 1995.5 0 
568 2007.67749023438 0 
569 2013.98986816406 0 
570 2004.46691894531 0 
571 2007.06323242188 0 
572 2001.63696289063 0 
573 1996.57885742188 0 
574 1995.32604980469 0 
575 2002.33703613281 0 
577 1999.3896484375 0 
578 1992.796875 0 
579 1998.287109375 0 
580 2020.27819824219 0 
581 1997.39245605469 0 
582 2004.46325683594 0 
583 2017.71838378906 0 
585 2002.78137207031 0 
587 1990.91552734375 0 
588 1993.98937988281 0 
591 2005.16137695313 0 
592 1997.8828125 0 
593 1994.90014648438 0 
594 1995.09301757812 0 
595 1995.81811523438 0 
596 1999.19946289063 0 
597 2020.75341796875 0 
598 2013.88317871094 0 
599 1990.24011230469 0 
600 1994.84619140625 0 
601 1996.31982421875 0 
602 1992.5 0 
603 1996.77709960938 0 
604 1998.13647460937 0 
606 1992.17114257812 0 
607 1994.66076660156 0 
608 1993 0 
609 1992.99792480469 0 
610 2007.87609863281 0 
611 2007.5 0 
612 2013.07202148438 0 
613 2003.52905273438 0 
614 2005.5478515625 0 
616 1997.56237792969 0 
617 1995.97497558594 0 
618 1995.32019042969 0 
620 2013.48168945313 0 
621 1990.85205078125 0 
622 1998.77673339844 0 
624 2001.20288085938 0 
625 2010.66772460938 0 
626 2001.60656738281 0 
627 2011.59045410156 0 
629 2016.48681640625 0 
630 2000.45104980469 0 
632 1996.216796875 0 
633 1998.27758789063 0 
636 2005.97546386719 0 
638 1999.2421875 0 
639 1990 0 
640 1989 0 
641 2001.85009765625 0 
642 1998.89685058594 0 
643 1996.30505371094 0 
644 2005.09936523438 0 
645 2002.26062011719 0 
646 2002.13049316406 0 
647 2002.46203613281 0 
648 1996.04626464844 0 
649 2001.85583496094 0 
650 2002.5 0 
651 2000.57690429688 0 
652 2008.69323730469 0 
653 2021.26928710938 0 
654 1996.11730957031 0 
655 2000.31103515625 0 
656 1999.89379882813 0 
657 2015.57434082031 0 
658 2004.69982910156 0 
662 1997.50231933594 0 
663 1995.73608398438 0 
665 2000.34887695313 0 
666 1999.02575683594 0 
667 2010.62048339844 0 
668 2006.58630371094 0 
669 2000.6552734375 0 
670 1998.97741699219 0 
671 2001.79699707031 0 
672 2003.66772460938 0 
673 1998.23937988281 0 
674 1995.81628417969 0 
675 1995.85986328125 0 
676 2003.5 0 
677 2003.99145507813 0 
678 2007.064453125 0 
679 1998.09130859375 0 
680 1993.38134765625 0 
681 1996.97302246094 0 
682 2000.54528808594 0 
683 2015.31848144531 0 
684 2004.21606445313 0 
685 2009 0 
686 1997.74658203125 0 
688 1995.10876464844 0 
689 2003.20983886719 0 
690 2012.62109375 0 
692 1999.36499023438 0 
694 2000.63208007813 0 
695 2007.54211425781 0 
696 2012.06201171875 0 
697 2007.51171875 0 
698 2017.31982421875 0 
700 1998.94091796875 0 
701 2012.01696777344 0 
702 1995.41076660156 0 
703 1990 0 
704 1996.57385253906 0 
705 1996.92517089844 0 
706 1998.19567871094 0 
708 1988.57080078125 0 
709 1991.14025878906 0 
710 2021.12634277344 0 
711 1998.21997070313 0 
712 2021.38342285156 0 
713 2001.43737792969 0 
714 1995.30053710938 0 
715 2008.08129882813 0 
716 2007.02954101563 0 
718 2019.21569824219 0 
720 2008.32702636719 0 
721 1997.19653320313 0 
723 1995.73352050781 0 
725 1998.30615234375 0 
726 2021.39111328125 0 
727 2012.86315917969 0 
728 2004.80078125 0 
729 2007.06420898438 0 
730 1996.21508789063 0 
731 1994.6474609375 0 
732 1992.79675292969 0 
733 2005.61364746094 0 
734 2006.19592285156 0 
735 1997.68493652344 0 
736 1995.40661621094 0 
737 1996.25744628906 0 
738 1997.63208007813 0 
740 2006.5830078125 0 
741 2013.98022460938 0 
742 1998.48352050781 0 
745 2009.66455078125 0 
746 1994.76770019531 0 
748 2000.92041015625 0 
749 2000.71374511719 0 
750 1992.04162597656 0 
751 2008.92333984375 0 
752 2015.63195800781 0 
753 2004.87585449219 0 
754 2008 0 
755 2000.85083007813 0 
756 1998.96960449219 0 
757 1996.615234375 0 
758 1995.18469238281 0 
759 2002.87854003906 0 
762 2004.85949707031 0 
763 2008.51843261719 0 
764 1990.46276855469 0 
765 2007.61450195312 0 
766 2012.5 0 
767 1997.10046386719 0 
768 2006.60534667969 0 
769 1995.28662109375 0 
772 1995.76354980469 0 
773 2011.70654296875 0 
775 2023.12292480469 0 
776 2000.96044921875 0 
777 2003.15698242188 0 
778 1991.34387207031 0 
779 2018.84716796875 0 
781 2008.88342285156 0 
782 2003.67932128906 0 
783 2003.20007324219 0 
784 2011.66650390625 0 
785 1995.65966796875 0 
786 2000.26806640625 0 
787 2007.03381347656 0 
788 2012.44689941406 0 
789 2000.04174804688 0 
790 2007.19555664063 0 
791 1996.11022949219 0 
792 1995.93444824219 0 
793 1995.5 0 
794 2005.85974121094 0 
795 2010.32751464844 0 
796 1996.56030273438 0 
797 1995.16040039063 0 
798 1999.19897460938 0 
799 1996.01953125 0 
800 2001.61120605469 0 
801 2012.41650390625 0 
802 2002.45556640625 0 
804 2000.68078613281 0 
805 1992.96350097656 0 
806 2007.84436035156 0 
807 2007.91076660156 0 
808 1999.02661132813 0 
809 2006.6640625 0 
810 1994.20349121094 0 
812 1993.44287109375 0 
813 1992.84997558594 0 
815 2008.15625 0 
816 1995.67077636719 0 
817 1993.13354492188 0 
818 1993.47741699219 0 
819 1998.97387695313 0 
820 2009.97106933594 0 
821 2004.12768554688 0 
822 2003.1630859375 0 
823 1997.42614746094 0 
824 2008 0 
825 2000.53552246094 0 
826 2000.5 0 
828 2007.09008789063 0 
829 2001.74792480469 0 
830 1994.57556152344 0 
833 2001.81274414063 0 
834 2001.03649902344 0 
835 2015.23608398438 0 
837 2004.87145996094 0 
838 2004.63452148438 0 
840 2003.86962890625 0 
841 2003.82177734375 0 
843 2006.84851074219 0 
845 2007.54992675781 0 
846 2012.87731933594 0 
848 2007.31555175781 0 
849 1996.271484375 0 
851 1998.17700195312 0 
852 1995.68627929688 0 
853 1993.77270507813 0 
854 1990.21618652344 0 
855 1999.61389160156 0 
856 1990 0 
857 1991.80261230469 0 
858 2000.8056640625 0 
860 1991.94213867188 0 
861 2014.60046386719 0 
862 1995 0 
863 2006.66235351563 0 
864 2003.2998046875 0 
865 1996.78063964844 0 
866 2008.39611816406 0 
867 1995.904296875 0 
868 2004.41027832031 0 
869 2005.03332519531 0 
870 2020.525390625 0 
871 2020.78820800781 0 
872 2000.83264160156 0 
873 2012.5 0 
875 2005.98522949219 0 
876 2004.43908691406 0 
878 1998.16052246094 0 
880 2014.13452148438 0 
881 1995.53540039063 0 
882 2008.50329589844 0 
883 2000.09545898438 0 
885 1990.74133300781 0 
886 2007.88879394531 0 
888 1998.9423828125 0 
889 2006.44360351562 0 
890 1998.96264648438 0 
891 1992.5 0 
892 1991.85681152344 0 
894 1996.90161132813 0 
895 2006.33251953125 0 
896 1997 0 
1841 1990.69189453125 0 
1846 2008.19714355469 0 
1852 2007.03833007813 0 
1855 2007.81225585938 0 
1863 2003.23706054688 0 
1889 1995.30493164063 0 
1897 2007.98046875 0 
1901 2001.33728027344 0 
1904 2001.3232421875 0 
1911 2019.85546875 0 
1914 2014.87731933594 0 
1917 2015.69775390625 0 
1920 2016.59509277344 0 
1923 2016.39782714844 0 
1926 2017.41101074219 0 
1930 2012.5 0 
1933 2012.33337402344 0 
1939 2009.61572265625 0 
1948 2005.38464355469 0 
1951 2002.28527832031 0 
1954 2000.5 0 
1957 1997.09924316406 0 
1967 1995.85864257813 0 
1977 1996.36206054688 0 
1980 1997.60595703125 0 
1986 1997.822265625 0 
1990 2015.69506835938 0 
1993 2000.83288574219 0 
1996 2004.349609375 0 
1999 2001.97375488281 0 
2002 2004.41088867188 0 
2006 2002.677734375 0 
2009 2001.90930175781 0 
2012 2004.83215332031 0 
2015 2005.14465332031 0 
2019 2007.61047363281 0 
2022 2005.59155273438 0 
2025 2006.81176757813 0 
2028 1992.85095214844 0 
2032 1990.42700195313 0 
2035 1993.48681640625 0 
2038 1988.3583984375 0 
2041 1990.52282714844 0 
2044 1993.73217773438 0 
2047 1995.30847167969 0 
2050 1995.76684570313 0 
2053 1997.32702636719 0 
2056 1998.55114746094 0 
2059 1995.09875488281 0 
2062 1996.39562988281 0 
2065 1996.00158691406 0 
2068 1994.7177734375 0 
2071 1998.64709472656 0 
2075 1995.21728515625 0 
2078 1990.66711425781 0 
2081 1999.22314453125 0 
2084 2002.60595703125 0 
2092 2010.43798828125 0 
2096 2005.48400878906 0 
2100 1999.33093261719 0 
2104 1997.9228515625 0 
2105 1999.6357421875 0 
2106 1999.69445800781 0 
2114 2007.85009765625 0 
2121 1994.51806640625 0 
2132 1994.5859375 0 
2136 2008.5 0 
2139 2012.470703125 0 
2142 2017.97241210938 0 
2154 2003.13513183594 0 
2157 1997.82153320313 0 
2160 1998.91967773438 0 
2163 1999.26586914063 0 
2166 1995.5 0 
2169 1996.72766113281 0 
2172 1996.85522460938 0 
2175 1996.91027832031 0 
2184 2003.14416503906 0 
2187 2005.89379882813 0 
2190 2007.46020507813 0 
2193 2010.19799804688 0 
2196 2011.27380371094 0 
2211 2000.3037109375 0 
2214 2000.55114746094 0 
2217 1996.58715820313 0 
2220 1994.91333007813 0 
2223 1996.36218261719 0 
2226 1997.93151855469 0 
2229 1997.84375 0 
2232 1994.62805175781 0 
2235 1995.7841796875 0 
2238 1997.80688476563 0 
2241 1999.84997558594 0 
2244 2002.43041992188 0 
2247 2004.17614746094 0 
2250 2007.5 0 
2253 2006.51257324219 0 
2256 2006.43542480469 0 
2259 1998.53576660156 0 
2262 1996.17102050781 0 
2265 1995.5 0 
2268 2003.44274902344 0 
2271 2003.61682128906 0 
2274 1995.08459472656 0 
2277 1995.5 0 
2280 1995.5 0 
2283 1995.63720703125 0 
2286 1996 0 
2289 1996.45446777344 0 
2292 1997.34985351563 0 
2295 1998.23193359375 0 
2298 1999.33239746094 0 
2301 2000.50659179688 0 
2304 2002.56567382813 0 
2307 2007.35815429688 0 
2310 2010.37268066406 0 
2313 2010.44763183594 0 
2316 2010.5 0 
2319 2010 0 
2322 2008.10595703125 0 
2325 2006 0 
2328 2006.47192382813 0 
2331 2006.11218261719 0 
2334 2005.06689453125 0 
2337 2002.28186035156 0 
2340 2000.33068847656 0 
2346 1999.06506347656 0 
2349 1997.27087402344 0 
2358 1996.36145019531 0 
2361 1995.77941894531 0 
2364 1995.5 0 
2367 1995.5 0 
2370 1995.49084472656 0 
2373 1996.931640625 0 
2376 2000.89819335937 0 
2379 2002.84851074219 0 
2382 2005.49658203125 0 
2385 2007.56970214844 0 
2388 2010.29577636719 0 
2391 2013.86755371094 0 
2394 2019.93395996094 0 
2397 2013.37768554688 0 
2400 2015 0 
2403 2010.38098144531 0 
2412 1992.5 0 
2415 1992.85620117188 0 
2433 1992.763671875 0 
2436 1992.45666503906 0 
2439 2004.23547363281 0 
2442 2004.48315429688 0 
2445 2003.24047851563 0 
2448 2004.82580566406 0 
2451 2005.0068359375 0 
2454 2006.15881347656 0 
2460 1998.22338867188 0 
2463 1990 0 
2466 1992.44360351563 0 
2469 1995.07958984375 0 
2472 1992.91296386719 0 
2475 1994.54296875 0 
2478 1995.47326660156 0 
2481 1996.8427734375 0 
2484 2000.63977050781 0 
2487 2003.04626464844 0 
2493 1995.8310546875 0 
2497 2022.76452636719 0 
2502 2007.20080566406 0 
2505 2007.81689453125 0 
2508 2007.49206542969 0 
2511 2006.63049316406 0 
2514 2006.50769042969 0 
2517 2006.47424316406 0 
2520 2006.46850585938 0 
2523 2006.86584472656 0 
2526 2005.9130859375 0 
2529 2006.3720703125 0 
2532 2006 0 
2535 2007.62219238281 0 
2538 2009.85217285156 0 
2541 2009.46215820313 0 
2544 2018.02880859375 0 
2547 2015.81555175781 0 
2550 2011.32983398438 0 
2553 2013.02587890625 0 
2556 2013.82348632813 0 
2559 2012.39086914063 0 
2562 2010.58740234375 0 
2565 2010.34936523438 0 
2568 2010.32690429687 0 
2571 2010.29833984375 0 
2574 2011.25988769531 0 
2577 2012.19177246094 0 
2580 2012.77697753906 0 
2592 2007.61486816406 0 
2595 2006 0 
2598 2006.40930175781 0 
2601 2006.5 0 
2604 2007.5 0 
2607 2007.49865722656 0 
2610 2006.59326171875 0 
2613 2004.75280761719 0 
2616 2003.82409667969 0 
2619 2004 0 
2622 2003.32556152344 0 
2625 2002.5107421875 0 
2637 2000.65649414063 0 
2640 2000.76611328125 0 
2652 1997.63891601563 0 
2655 1996.51037597656 0 
2658 1995.43103027344 0 
2661 1995 0 
2664 1994.95861816406 0 
2667 1997.68310546875 0 
2670 1996.73181152344 0 
2673 1995.56762695313 0 
2676 1995.28137207031 0 
2679 1994.53576660156 0 
2682 1991.31896972656 0 
2685 1994.90246582031 0 
2688 2001.66528320313 0 
2691 1995.51245117188 0 
2694 1997.34655761719 0 
2697 1994.7392578125 0 
2700 1992.16394042969 0 
2703 1996.95166015625 0 
2706 2001.11926269531 0 
2709 2001.69213867188 0 
2712 2006.35180664063 0 
2715 2006.42700195313 0 
2718 2008.91796875 0 
2721 2004.97216796875 0 
2724 2003.95776367188 0 
2730 1999.54870605469 0 
2733 2000.90710449219 0 
2736 1992.55078125 0 
2739 2002.880859375 0 
2742 2008.44934082031 0 
2745 2006.80236816406 0 
2748 2007.29553222656 0 
2751 2009.64111328125 0 
2754 2015.57495117188 0 
2757 2015.67297363281 0 
2760 2014.13989257813 0 
2763 2014.76843261719 0 
2766 2009.41162109375 0 
2769 2008.6708984375 0 
2772 2006.47802734375 0 
2775 2005.20788574219 0 
2778 2004.27270507813 0 
2781 2004.5 0 
2784 2007 0 
2790 2003.70397949219 0 
2793 2002.5 0 
2796 2003.25988769531 0 
2799 2008.95031738281 0 
2802 1995.13134765625 0 
2805 1995.16857910156 0 
2808 1998.3125 0 
2811 1997.57055664063 0 
2814 1995.23364257813 0 
2817 1991.58361816406 0 
2820 1993.92749023438 0 
2823 1993.78137207031 0 
2828 2018.35522460938 0 
2831 2019.498046875 0 
2834 2020.93811035156 0 
2837 2002.96264648437 0 
2840 2001.47094726563 0 
2843 2001.62622070312 0 
2846 2000.5 0 
2852 1999.60607910156 0 
2855 2002.484375 0 
2862 1992.33752441406 0 
2871 1998.29296875 0 
2874 1999.76220703125 0 
2880 2008.2 0 
2881 2008.84008789063 0 
2882 2007.3896484375 0 
2883 2006.61560058594 0 
2884 2004.69384765625 0 
2892 2005.53515625 0 
2895 2004.73327636719 0 
2899 2003.76867675781 0 
2905 2003.50610351563 0 
2908 2000.15649414063 0 
2911 1999.14245605469 0 
2912 1999.07873535156 0 
2913 1998.88024902344 0 
2924 2000.66442871094 0 
2927 1998.88366699219 0 
2930 1994.88317871094 0 
2933 1995.91479492188 0 
2934 1996.86999511719 0 
2935 1998.07702636719 0 
2938 1999.34289550781 0 
2939 2000.38452148438 0 
2942 2001.0654296875 0 
2943 2002.16748046875 0 
2949 1998.59252929687 0 
2956 1996.79565429687 0 
2963 2006.58447265625 0 
2967 2008.42944335938 0 
2971 1999.07751464844 0 
2974 1996.72705078125 0 
2975 1997.16003417969 0 
2980 1996.69055175781 0 
2981 1996.93908691406 0 
2985 1996.58801269531 0 
2990 1997.00183105469 0 
2993 1996.5 0 
2999 1996.5 0 
3002 1996.5 0 
3005 1996.443359375 0 
3008 1996.5 0 
3009 1996.5 0 
3010 1996.68676757813 0 
3016 1996.06945800781 0 
3019 1996.42138671875 0 
3023 1996.82177734375 0 
3026 1997.72033691406 0 
3030 1997.21936035156 0 
3035 2008.08923339844 0 
3038 2008.5 0 
3039 2008 0 
3040 2007.85375976563 0 
3046 2000.95739746094 0 
3049 2002.75695800781 0 
3050 2005.54479980469 0 
3051 2006.19763183594 0 
3057 2004.99291992188 0 
3058 2004.34216308594 0 
3059 2003.57080078125 0 
3064 2005.75903320313 0 
3067 1999.29748535156 0 
3070 2000.91638183594 0 
3073 2002.0029296875 0 
3074 2003.32592773438 0 
3079 2020.11059570313 0 
3080 2018.67993164063 0 
3092 2008.27880859375 0 
3095 2009.224609375 0 
3096 2008.67517089844 0 
3101 2009.2470703125 0 
3104 2004.77416992188 0 
3105 2003.94140625 0 
3106 2005.3671875 0 
3112 2021.46496582031 0 
3115 2006.54650878906 0 
3118 2007.13354492188 0 
3122 2006.5908203125 0 
3123 2007.09619140625 0 
3124 2007.15637207031 0 
3125 2007.16149902344 0 
3126 2007.33544921875 0 
3127 2007.12561035156 0 
3136 2006.88659667969 0 
3139 2007.06726074219 0 
3143 2007.08386230469 0 
3147 2007.33276367187 0 
3152 2007.083984375 0 
3155 2008.28552246094 0 
3158 2008.68627929688 0 
3159 2009.23950195313 0 
3160 2009.5 0 
3161 2009.90612792969 0 
3164 2009.77551269531 0 
3165 2009.85192871094 0 
3166 2009.71765136719 0 
3176 2007.98327636719 0 
3177 2007.88586425781 0 
3178 2007.56127929688 0 
3183 2007.55615234375 0 
3184 2007.58862304688 0 
3186 2007.64428710938 0 
3188 2007.97839355469 0 
3195 2017.98876953125 0 
3203 2017.90686035156 0 
3206 2015.90197753906 0 
3209 2015.75329589844 0 
3210 2015.69775390625 0 
3211 2015.22143554688 0 
3212 2014.76672363281 0 
3215 2012.34130859375 0 
3218 2011.69299316406 0 
3219 2011.43786621094 0 
3220 2010.95568847656 0 
3231 2012.91711425781 0 
3232 2013.40954589844 0 
3233 2013.99743652344 0 
3234 2014.71984863281 0 
3235 2015 0 
3236 2015.5 0 
3244 2004.35949707031 0 
3245 2003.7958984375 0 
3248 2004.5 0 
3254 1999.5 0 
3257 2001.53942871094 0 
3260 2000.873046875 0 
3261 2000.78271484375 0 
3262 2001.08337402344 0 
3267 2002.14697265625 0 
3270 2002.3173828125 0 
3271 2002.43273925781 0 
3272 2002.5 0 
3273 2003.34509277344 0 
3280 1995 0 
3281 1995.34899902344 0 
3285 1998.25024414063 0 
3287 1999.35632324219 0 
3289 2001.36889648438 0 
3293 2004.6025390625 0 
3296 2006.99719238281 0 
3300 2007.908203125 0 
3303 2005.57348632813 0 
3307 2004.84301757813 0 
3310 2002.39013671875 0 
3314 2003.57861328125 0 
3317 1995.24768066406 0 
3321 1994.83862304687 0 
3325 1993.380859375 0 
3328 1995.26025390625 0 
3330 1995.89855957031 0 
3332 1997.87609863281 0 
3336 1993.44287109375 0 
3340 1993.5 0 
3344 1994.68103027344 0 
3347 1993.84313964844 0 
3351 1990.96752929688 0 
3353 1990.77062988281 0 
3355 1990.3818359375 0 
3359 1992.8203125 0 
3362 1989.3017578125 0 
3364 1986.46069335938 0 
3368 2000.34094238281 0 
3371 2000.04565429688 0 
3373 1999.64294433594 0 
3377 1999.04577636719 0 
3379 2000.01721191406 0 
3381 2001.39538574219 0 
3383 2002.28210449219 0 
3387 1997.89135742188 0 
3388 1997.88696289063 0 
3390 1997.84240722656 0 
3392 1997.82421875 0 
3394 1997.84204101563 0 
3396 1998.02380371094 0 
3400 1997.9423828125 0 
3402 1998.26831054688 0 
3406 1998.37023925781 0 
3408 1998.40966796875 0 
3419 1995.99572753906 0 
3422 1998.48291015625 0 
3426 1996.95361328125 0 
3428 1999.77185058594 0 
3432 1998.32348632813 0 
3435 1997.8359375 0 
3438 1998.00268554687 0 
3440 2000.78967285156 0 
3442 2001.12353515625 0 
3444 2001.9619140625 0 
3449 2007.68408203125 0 
3453 2007.97314453125 0 
3455 2007.98278808594 0 
3457 2008.01257324219 0 
3460 2006 0 
3463 2006 0 
3468 2004.89440917969 0 
3471 2008.50476074219 0 
3473 2009.0615234375 0 
3475 2012.43530273438 0 
3479 2000.95922851563 0 
3482 1999 0 
3491 1997.96960449219 0 
3494 1997.73583984375 0 
3499 1997.77136230469 0 
3500 1997.74353027344 0 
3501 1997.7294921875 0 
3507 1997.76550292969 0 
3510 1997.76916503906 0 
3513 2001.02185058594 0 
3516 2001.75659179688 0 
3524 1996.30480957031 0 
3530 1999.57775878906 0 
3533 1997.5 0 
3536 1997.77478027344 0 
3539 1997.89343261719 0 
3542 1997.94567871094 0 
3553 1996.13952636719 0 
3556 1996.49853515625 0 
3559 1997.14294433594 0 
3562 1997.01220703125 0 
3565 1999.67260742188 0 
3568 1999.08166503906 0 
3571 1998.50231933594 0 
3589 1998.88061523438 0 
3592 1998.962890625 0 
3595 2000.71765136719 0 
3611 1998.25866699219 0 
3615 2002.14916992187 0 
3619 1995.82434082031 0 
3624 2006.58679199219 0 
3630 2016.00659179688 0 
3634 2010.74462890625 0 
3639 1994.62878417969 0 
3644 1996.95068359375 0 
3648 1998.94494628906 0 
3651 1995.93188476563 0 
3654 2012.39221191406 0 
3656 1996.78393554688 0 
3658 1998.94885253906 0 
3688 1996.3999849133 0 
3691 1996.51 0 
2088-A 2008.40979003906 0 
2088-B 2008.40979003906 0 

[RESERVOIRS]
2087 2008.51501464844 

[DEMANDS]
49 0.249892380687393 
50 0.0878728137071454 
51 0.107669955282793 
53 0.197748409237972 
54 0.0806967366715757 
56 0.173654027257341 
59 0.333432271667969 
60 0.0541547026992753 
62 0.0487843182302952 
63 0.0510282456362244 
64 0.158109400045719 
65 0.0539313843376288 
66 0.161616392505228 
67 0.107503974216189 
68 0.103531001256025 
69 0.0121709354053518 
71 0.108309405398551 
74 0.335365658696154 
76 0.13957494730908 
77 0.270775397779615 
82 0.353127184871002 
85 0.122267653842754 
87 0.0717799701885286 
88 0.107971382799737 
89 0.150505563902664 
90 0.159114332673129 
93 0.64918487869866 
94 0.169195644015817 
96 0.0198501708661201 
97 1.58558676536433 