[TITLE]


[JUNCTIONS]
;ID              	Elev        	Demand      	Pattern         
 5               	669         	0.0240625   	1               	;
 6               	669         	0           	1               	;
 7               	670         	0           	                	;
 8               	684         	0.0240625   	1               	;
 9               	705         	0           	1               	;
 10              	670         	0.0240625   	1               	;
 11              	680         	0.0240625   	1               	;
 12              	658         	0           	1               	;
 13              	662         	0.0240625   	1               	;
 14              	647         	0           	1               	;
 15              	672         	0.0240625   	                	;
 16              	623         	0           	1               	;
 17              	613         	0           	1               	;
 18              	599         	0           	1               	;
 19              	613         	0.0240625   	1               	;
 20              	625         	0           	1               	;
 21              	628         	0.0240625   	1               	;
 22              	624         	0.0240625   	1               	;
 23              	629         	0           	1               	;
 24              	675         	0.0240625   	1               	;
 25              	632         	0           	1               	;
 26              	649         	0.0240625   	1               	;
 27              	652         	0.0240625   	1               	;
 28              	638         	0.0240625   	1               	;
 29              	638         	0           	1               	;
 30              	636         	0           	1               	;
 31              	657         	0.0240625   	1               	;
 32              	640         	0           	1               	;
 33              	652         	0.0240625   	1               	;
 34              	640         	0.0240625   	1               	;
 35              	626         	0.0240625   	1               	;
 36              	634         	0           	1               	;
 37              	639         	0.0240625   	1               	;
 38              	633         	0.0240625   	1               	;
 39              	638         	0.0240625   	1               	;
 40              	674         	0.0240625   	                	;
 41              	674         	0.0240625   	                	;
 42              	664         	0           	1               	;
 43              	676         	0           	1               	;
 44              	684         	0.0240625   	1               	;
 45              	647         	0           	1               	;
 46              	651         	0.0240625   	1               	;
 47              	644         	0.0240625   	1               	;
 50              	772         	0           	1               	;
 51              	670         	0.0240625   	1               	;
 52              	600         	0           	1               	;
 53              	602         	0           	1               	;
 54              	604         	0           	1               	;
 55              	612         	0.032285714 	1               	;
 56              	607         	0           	1               	;
 57              	614         	0.032285714 	1               	;
 58              	608         	0           	1               	;
 59              	616         	0.032285714 	1               	;
 60              	609         	0           	1               	;
 61              	616         	0.032285714 	1               	;
 62              	611         	0           	1               	;
 63              	616         	0.032285714 	1               	;
 64              	612         	0           	1               	;
 65              	610         	0.032285714 	1               	;
 66              	610         	0.032285714 	1               	;
 67              	604         	0.032285714 	1               	;
 68              	602         	0.032285714 	1               	;
 69              	606         	0.032285714 	1               	;
 70              	609         	0           	1               	;
 71              	610         	0           	1               	;
 72              	611         	0           	1               	;
 73              	608         	0           	1               	;
 74              	618         	0           	1               	;
 75              	618         	0.032285714 	1               	;
 76              	626         	0.032285714 	1               	;
 77              	622         	0.032285714 	1               	;
 78              	624         	0.032285714 	1               	;
 79              	600         	0           	1               	;
 80              	639         	0.032285714 	1               	;
 81              	635         	0.032285714 	1               	;
 82              	643         	0.032285714 	1               	;
 83              	632         	0.032285714 	1               	;
 84              	648         	0.032285714 	1               	;
 85              	642         	0.032285714 	1               	;
 86              	648         	0.032285714 	1               	;
 87              	634         	0.032285714 	1               	;
 88              	648         	0.032285714 	1               	;
 89              	657         	0.032285714 	1               	;
 90              	636         	0.032285714 	1               	;
 91              	597         	0           	1               	;
 92              	620         	0.032285714 	1               	;
 93              	608         	0.032285714 	1               	;
 94              	597         	0.032285714 	1               	;
 95              	624         	0.032285714 	1               	;
 96              	626         	0           	1               	;
 97              	640         	0           	1               	;
 98              	634         	0.032285714 	1               	;
 99              	635         	0.032285714 	1               	;
 100             	637         	0.032285714 	1               	;
 101             	634         	0.032285714 	1               	;
 102             	640         	0.032285714 	1               	;
 103             	642         	0.032285714 	1               	;
 104             	638         	0.032285714 	1               	;
 105             	645         	0.032285714 	1               	;
 106             	641         	0           	1               	;
 107             	643         	0.032285714 	1               	;
 108             	641         	0.032285714 	1               	;
 109             	651         	0.032285714 	1               	;
 110             	657         	0           	1               	;
 111             	656         	0.032285714 	1               	;
 112             	642         	0.032285714 	1               	;
 113             	652         	0           	1               	;
 114             	641         	0.032285714 	1               	;
 115             	638         	0.032285714 	1               	;
 116             	646         	0.032285714 	1               	;
 117             	632         	0.032285714 	1               	;
 118             	636         	0.032285714 	1               	;
 119             	602         	0           	1               	;
 120             	606         	0           	1               	;
 121             	606         	0           	1               	;
 122             	610         	0           	1               	;
 123             	640         	0           	1               	;
 124             	650         	0           	1               	;
 125             	656         	0.032285714 	1               	;
 126             	666         	0.032285714 	1               	;
 127             	666         	0.032285714 	1               	;
 128             	677         	0.032285714 	1               	;
 129             	672         	0.032285714 	1               	;
 130             	676         	0.032285714 	1               	;
 131             	674         	0.032285714 	1               	;
 132             	665         	0.032285714 	1               	;
 133             	660         	0.032285714 	1               	;
 134             	665         	0.032285714 	1               	;
 135             	667         	0.032285714 	1               	;
 136             	665         	0.032285714 	1               	;
 137             	666         	0.032285714 	1               	;
 138             	664         	0.032285714 	1               	;
 139             	668         	0.032285714 	1               	;
 140             	663         	0.032285714 	1               	;
 141             	650         	0.032285714 	1               	;
 142             	653         	0.032285714 	1               	;
 143             	654         	0.032285714 	1               	;
 144             	658         	0.032285714 	1               	;
 145             	655         	0.032285714 	1               	;
 146             	658         	0.032285714 	1               	;
 147             	658         	0.032285714 	1               	;
 148             	680         	0.0240625   	1               	;
 149             	680         	0           	1               	;
 150             	674         	0.0240625   	                	;
 151             	623         	0.0240625   	1               	;
 152             	664         	0.0240625   	1               	;
 153             	648         	0           	1               	;
 164             	766         	0           	1               	;
 165             	759         	0           	1               	;
 166             	755         	0           	1               	;
 167             	753         	0           	1               	;
 168             	746         	0           	1               	;
 169             	734         	0           	1               	;
 170             	726         	0           	1               	;
 171             	730         	0           	1               	;
 172             	733         	0           	1               	;
 173             	733         	0           	1               	;
 175             	742         	0           	1               	;
 176             	724         	0           	1               	;
 177             	714         	0           	1               	;
 3               	705         	0.0240625   	1               	;
 4               	795         	0           	                	;
 48              	795         	0           	                	;
 49              	648         	24.09       	1               	;
 154             	599         	0           	1               	;
 155             	705         	0           	1               	;
 156             	719         	0           	1               	;
 157             	719         	0           	1               	;
 158             	600         	0           	1               	;
 159             	613         	0           	1               	;
 160             	670         	0           	                	;
 161             	613         	0           	1               	;
 162             	613         	0           	1               	;
 163             	642         	.01203125   	                	;
 174             	652         	.01203125   	                	;
 178             	669         	0           	                	;
 179             	669         	0           	                	;
 180             	669         	0           	                	;
 181             	669         	0           	                	;

[RESERVOIRS]
;ID              	Head        	Pattern         
 1               	868.5       	                	;

[TANKS]
;ID              	Elevation   	InitLevel   	MinLevel    	MaxLevel    	Diameter    	MinVol      	VolCurve
 2               	795         	2           	.4          	5           	27.8        	0           	                	;

[PIPES]
;ID              	Node1           	Node2           	Length      	Diameter    	Roughness   	MinorLoss   	Status
 1               	50              	164             	91.51       	400         	130         	0           	Open  	;
 2               	2               	50              	113.18      	400         	130         	0           	Open  	;
 3               	164             	165             	103.14      	400         	130         	0           	Open  	;
 4               	165             	166             	97.71       	400         	130         	0           	Open  	;
 5               	166             	167             	102.71      	400         	130         	0           	Open  	;
 6               	167             	168             	126.26      	400         	130         	0           	Open  	;
 7               	168             	169             	101.85      	400         	130         	0           	Open  	;
 8               	169             	170             	100.55      	400         	130         	0           	Open  	;
 9               	170             	171             	201.08      	400         	130         	0           	Open  	;
 10              	171             	172             	105.85      	400         	130         	0           	Open  	;
 11              	172             	173             	145.60      	400         	130         	0           	Open  	;
 12              	173             	175             	194.73      	400         	130         	0           	Open  	;
 13              	175             	176             	296.15      	400         	130         	0           	Open  	;
 15              	177             	9               	147.71      	400         	130         	0           	Open  	;
 17              	148             	8               	232.42      	75          	130         	0           	Open  	;
 18              	8               	43              	260.66      	75          	130         	0           	Open  	;
 19              	43              	44              	112         	50          	130         	0           	Open  	;
 21              	45              	47              	186.09      	50          	130         	0           	Open  	;
 22              	45              	46              	85          	50          	130         	0           	Open  	;
 23              	9               	149             	346.89      	400         	130         	0           	Open  	;
 24              	149             	5               	280.05      	400         	130         	0           	Open  	;
 25              	5               	51              	285.47      	50          	130         	0           	Open  	;
 26              	51              	11              	299.77      	50          	130         	0           	Open  	;
 28              	12              	13              	100         	50          	130         	0           	Open  	;
 29              	12              	14              	79.84       	50          	130         	0           	Open  	;
 30              	5               	6               	245.00      	400         	130         	0           	Open  	;
 31              	6               	10              	127.75      	50          	130         	0           	Open  	;
 32              	6               	40              	135.96      	400         	130         	0           	Open  	;
 33              	40              	150             	215.40      	400         	130         	0           	Open  	;
 34              	150             	41              	175.67      	400         	130         	0           	Open  	;
 35              	41              	7               	211.92      	400         	130         	0           	Open  	;
 36              	160             	42              	484.94      	400         	130         	0           	Open  	;
 37              	42              	153             	295.50      	400         	130         	0           	Open  	;
 38              	153             	16              	297.60      	200         	130         	0           	Open  	;
 40              	16              	17              	194.17      	200         	130         	0           	Open  	;
 41              	159             	20              	240         	150         	130         	0           	Open  	;
 42              	20              	21              	41.73       	100         	130         	0           	Open  	;
 43              	21              	23              	135.33      	100         	130         	0           	Open  	;
 44              	23              	24              	443.06      	75          	130         	0           	Open  	;
 45              	23              	22              	52.38       	50          	130         	0           	Open  	;
 46              	21              	25              	120.59      	75          	130         	0           	Open  	;
 47              	25              	30              	89.15       	75          	130         	0           	Open  	;
 48              	30              	32              	85.01       	75          	130         	0           	Open  	;
 49              	32              	33              	79.34       	50          	130         	0           	Open  	;
 50              	32              	34              	90.33       	50          	130         	0           	Open  	;
 51              	30              	31              	92.74       	50          	130         	0           	Open  	;
 52              	25              	29              	79.61       	50          	130         	0           	Open  	;
 53              	29              	27              	74.73       	50          	130         	0           	Open  	;
 54              	29              	28              	58.19       	50          	130         	0           	Open  	;
 55              	25              	26              	80.28       	50          	130         	0           	Open  	;
 56              	20              	35              	121.16      	100         	130         	0           	Open  	;
 57              	35              	36              	81.82       	100         	130         	0           	Open  	;
 58              	36              	37              	116.19      	50          	130         	0           	Open  	;
 59              	36              	39              	70          	50          	130         	0           	Open  	;
 60              	39              	38              	102.93      	50          	130         	0           	Open  	;
 61              	7               	15              	150.09      	50          	130         	0           	Open  	;
 62              	42              	152             	56.55       	50          	130         	0           	Open  	;
 63              	17              	18              	261.33      	150         	130         	0           	Open  	;
 65              	18              	91              	270.70      	150         	130         	0           	Open  	;
 66              	91              	52              	247.26      	150         	130         	0           	Open  	;
 68              	53              	74              	388.29      	200         	130         	0           	Open  	;
 69              	53              	73              	124.23      	63          	140         	0           	Open  	;
 70              	73              	70              	21.05       	63          	140         	0           	Open  	;
 71              	70              	71              	23.62       	63          	140         	0           	Open  	;
 72              	71              	72              	60.72       	63          	140         	0           	Open  	;
 73              	72              	64              	25.99       	63          	140         	0           	Open  	;
 74              	64              	74              	145.68      	63          	140         	0           	Open  	;
 75              	53              	54              	30.89       	63          	140         	0           	Open  	;
 76              	54              	56              	33.28       	63          	140         	0           	Open  	;
 77              	56              	58              	33.77       	63          	140         	0           	Open  	;
 78              	58              	60              	31.48       	63          	140         	0           	Open  	;
 79              	60              	62              	32.45       	63          	140         	0           	Open  	;
 80              	62              	74              	226.97      	63          	140         	0           	Open  	;
 81              	54              	55              	67.37       	32          	140         	0           	Open  	;
 82              	56              	57              	68.52       	32          	140         	0           	Open  	;
 83              	58              	59              	73.80       	32          	140         	0           	Open  	;
 84              	60              	61              	70.21       	32          	140         	0           	Open  	;
 85              	62              	63              	57.27       	32          	140         	0           	Open  	;
 86              	64              	65              	42.87       	32          	140         	0           	Open  	;
 87              	72              	66              	59.10       	32          	140         	0           	Open  	;
 88              	71              	67              	74.08       	32          	140         	0           	Open  	;
 89              	70              	69              	52.92       	32          	140         	0           	Open  	;
 90              	73              	68              	77.04       	32          	140         	0           	Open  	;
 91              	53              	75              	158.91      	63          	140         	0           	Open  	;
 92              	75              	76              	144.43      	63          	140         	0           	Open  	;
 93              	76              	77              	107.06      	63          	140         	0           	Open  	;
 94              	77              	74              	142.30      	63          	140         	0           	Open  	;
 95              	75              	78              	332.57      	32          	140         	0           	Open  	;
 96              	53              	79              	144.38      	90          	140         	0           	Open  	;
 97              	79              	94              	205.50      	90          	140         	0           	Open  	;
 98              	94              	92              	200.17      	63          	140         	0           	Open  	;
 99              	94              	93              	153.24      	32          	140         	0           	Open  	;
 100             	79              	95              	160.32      	90          	140         	0           	Open  	;
 101             	95              	80              	124.05      	90          	140         	0           	Open  	;
 102             	80              	82              	54.99       	90          	140         	0           	Open  	;
 103             	82              	84              	169.97      	90          	140         	0           	Open  	;
 104             	84              	86              	67.03       	90          	140         	0           	Open  	;
 105             	86              	88              	47.47       	90          	140         	0           	Open  	;
 106             	88              	89              	128.47      	63          	140         	0           	Open  	;
 107             	88              	90              	224.89      	63          	140         	0           	Open  	;
 108             	86              	87              	147.81      	32          	140         	0           	Open  	;
 109             	84              	85              	103.45      	32          	140         	0           	Open  	;
 110             	82              	83              	136.19      	32          	140         	0           	Open  	;
 111             	80              	81              	94.05       	32          	140         	0           	Open  	;
 112             	52              	119             	61.90       	100         	130         	0           	Open  	;
 113             	119             	120             	382.54      	100         	130         	0           	Open  	;
 114             	120             	121             	408.93      	100         	130         	0           	Open  	;
 115             	121             	122             	311.93      	100         	130         	0           	Open  	;
 116             	122             	123             	267.59      	100         	130         	0           	Open  	;
 117             	123             	124             	126.73      	100         	130         	0           	Open  	;
 118             	124             	126             	142.94      	100         	130         	0           	Open  	;
 119             	126             	128             	55.18       	100         	130         	0           	Open  	;
 120             	128             	130             	79.90       	75          	130         	0           	Open  	;
 121             	130             	132             	81.41       	75          	130         	0           	Open  	;
 122             	132             	134             	20.39       	75          	130         	0           	Open  	;
 123             	134             	136             	28.83       	75          	130         	0           	Open  	;
 124             	136             	138             	28.67       	75          	130         	0           	Open  	;
 125             	138             	141             	174.05      	50          	130         	0           	Open  	;
 126             	141             	140             	188.82      	50          	130         	0           	Open  	;
 127             	138             	139             	105.29      	50          	130         	0           	Open  	;
 128             	136             	137             	51.50       	50          	130         	0           	Open  	;
 129             	134             	135             	40.21       	50          	130         	0           	Open  	;
 130             	132             	133             	78.10       	50          	130         	0           	Open  	;
 131             	130             	131             	72.14       	50          	130         	0           	Open  	;
 132             	128             	129             	222.33      	50          	130         	0           	Open  	;
 133             	124             	125             	105.51      	50          	130         	0           	Open  	;
 134             	126             	127             	39.52       	50          	130         	0           	Open  	;
 135             	74              	96              	346.16      	200         	130         	0           	Open  	;
 136             	96              	97              	373.33      	200         	130         	0           	Open  	;
 137             	97              	98              	256.07      	160         	140         	0           	Open  	;
 138             	98              	100             	41.55       	160         	140         	0           	Open  	;
 139             	100             	102             	65.81       	160         	140         	0           	Open  	;
 140             	102             	118             	157.79      	160         	140         	0           	Open  	;
 141             	102             	103             	68.51       	32          	140         	0           	Open  	;
 142             	100             	101             	81.01       	32          	140         	0           	Open  	;
 143             	98              	99              	148.00      	32          	140         	0           	Open  	;
 144             	118             	104             	194.60      	160         	140         	0           	Open  	;
 145             	104             	115             	103.16      	110         	140         	0           	Open  	;
 146             	115             	117             	75.19       	32          	140         	0           	Open  	;
 147             	115             	116             	155.24      	110         	140         	0           	Open  	;
 148             	104             	106             	40.21       	110         	140         	0           	Open  	;
 149             	106             	105             	29.92       	110         	140         	0           	Open  	;
 150             	105             	109             	69.40       	110         	140         	0           	Open  	;
 151             	109             	113             	36.38       	110         	140         	0           	Open  	;
 152             	113             	110             	94.54       	110         	140         	0           	Open  	;
 153             	110             	146             	77.24       	90          	140         	0           	Open  	;
 154             	146             	111             	161.28      	90          	140         	0           	Open  	;
 155             	111             	145             	155.29      	63          	140         	0           	Open  	;
 156             	145             	109             	134.60      	63          	140         	0           	Open  	;
 157             	106             	107             	65.04       	32          	140         	0           	Open  	;
 158             	105             	108             	110.12      	32          	140         	0           	Open  	;
 159             	113             	114             	99.37       	32          	140         	0           	Open  	;
 160             	110             	143             	58.91       	63          	140         	0           	Open  	;
 161             	143             	112             	189.38      	32          	140         	0           	Open  	;
 162             	143             	142             	32.85       	32          	140         	0           	Open  	;
 163             	146             	147             	24.85       	32          	140         	0           	Open  	;
 166             	110             	144             	65.10       	32          	140         	0           	Open  	;