[TITLE]

[JUNCTIONS]
J100                  0	590.000000	5.720000	-
J102                  0	585.000000
J104                  0	600.000000	2.700000	-
J108                  0	620.000000
J110                  0	615.000000
J112                  0	610.000000
J114                  0	580.000000
J116                  0	545.000000
J118                  0	550.000000
J12                   0	639.000000
J120                  0	540.000000	-55.000000	-
J122                  0	540.000000
J1230                 0	570.000000	5.740000	-
J1232                 0	565.000000
J1234                 0	565.000000
J1236                 0	565.000000
J1238                 0	570.000000
J124                  0	540.000000
J1240                 0	560.000000
J1244                 0	570.000000
J1246                 0	570.000000	5.737500	-
J1248                 0	570.000000
J1250                 0	570.000000
J1252                 0	570.000000
J1254                 0	615.000000	20.250000	-
J1256                 0	570.000000
J126                  0	560.000000
J1264                 0	580.000000
J1268                 0	580.000000
J1270                 0	575.000000
J1272                 0	580.000000
J1274                 0	575.000000
J1276                 0	575.000000
J1278                 0	600.000000
J128                  0	540.000000
J1280                 0	600.000000
J1282                 0	610.000000	8.599500	-
J1284                 0	650.000000
J1286                 0	650.000000
J1288                 0	650.000000	38.286000	-
J1290                 0	640.000000	22.936500	-
J1292                 0	640.000000	39.879000	-
J1294                 0	675.000000
J1298                 0	675.000000	51.610500	-
J130                  0	565.000000
J1300                 0	620.000000
J1302                 0	625.000000
J1304                 0	650.000000
J1306                 0	655.000000
J1308                 0	650.000000	11.461500	-
J1310                 0	640.000000	39.879000	-
J1312                 0	625.000000
J1314                 0	567.000000
J1316                 0	570.000000	35.086500	-
J1318                 0	577.000000	14.337000	-
J132                  0	565.000000
J1320                 0	555.000000	14.337000	-
J1322                 0	555.000000
J1324                 0	555.000000	14.337000	-
J1326                 0	550.000000
J1328                 0	550.000000	90.922500	-
J1330                 0	552.000000	52.636500	-
J1332                 0	555.000000
J1334                 0	555.000000
J1336                 0	570.000000
J1338                 0	580.000000	9.100000	-
J134                  0	557.000000	56.970000	-
J1340                 0	565.000000
J1342                 0	570.000000
J1344                 0	575.000000	9.100000	-
J1346                 0	555.000000	9.100000	-
J1348                 0	520.000000
J1350                 0	575.000000	2.700000	-
J1352                 0	570.000000	41.485500	-
J1354                 0	605.000000	36.706500	-
J1356                 0	613.000000	28.701000	-
J1358                 0	575.000000	27.135000	-
J136                  0	565.000000	56.970000	-
J1360                 0	575.000000	28.701000	-
J1362                 0	610.000000	81.432000	-
J1364                 0	565.000000	41.485500	-
J1366                 0	555.000000	59.062500	-
J1368                 0	555.000000	59.062500	-
J1370                 0	555.000000	59.062500	-
J1372                 0	560.000000	59.062500	-
J1374                 0	570.000000	57.429000	-
J1376                 0	560.000000	59.062500	-
J1378                 0	570.000000	5.737500	-
J138                  0	565.000000	5.400000	-
J1380                 0	580.000000	60.642000	-
J1382                 0	585.000000	52.636500	-
J1384                 0	575.000000
J1386                 0	570.000000
J1388                 0	570.000000
J1390                 0	575.000000	60.642000	-
J1392                 0	590.000000	39.879000	-
J1394                 0	590.000000	33.750000	-
J1396                 0	585.000000	33.750000	-
J1398                 0	585.000000	33.750000	-
J140                  0	530.000000
J1400                 0	585.000000	33.750000	-
J1402                 0	600.000000	20.250000	-
J1404                 0	590.000000	2.700000	-
J1406                 0	610.000000	27.000000	-
J1408                 0	590.000000
J1410                 0	590.000000
J1414                 0	600.000000	4.050000	-
J1416                 0	600.000000	5.400000	-
J1418                 0	600.000000	6.750000	-
J142                  0	500.000000
J1420                 0	590.000000	13.500000	-
J1422                 0	590.000000	2.700000	-
J1424                 0	590.000000	2.700000	-
J1426                 0	590.000000	2.700000	-
J1428                 0	590.000000	2.700000	-
J1430                 0	590.000000	13.500000	-
J1432                 0	590.000000	20.250000	-
J1434                 0	595.000000	6.750000	-
J1436                 0	580.000000
J1438                 0	600.000000	3.631500	-
J144                  0	509.000000
J1440                 0	650.000000	22.936500	-
J1442                 0	590.000000	14.337000	-
J1444                 0	600.000000
J1446                 0	600.000000	8.599500	-
J1448                 0	550.000000
J1450                 0	575.000000
J1452                 0	575.000000	14.337000	-
J1454                 0	600.000000
J1456                 0	610.000000	14.337000	-
J1458                 0	580.000000	44.725500	-
J146                  0	650.000000	10.660000	-
J1460                 0	580.000000	44.725500	-
J1462                 0	585.000000
J1464                 0	580.000000
J1466                 0	585.000000	28.701000	-
J1468                 0	580.000000	38.421000	-
J1470                 0	570.000000
J1472                 0	570.000000	29.700000	-
J1474                 0	570.000000	21.600000	-
J1476                 0	550.000000
J1478                 0	600.000000	27.000000	-
J1480                 0	550.000000
J1482                 0	600.000000	26.325000	-
J1484                 0	620.000000
J1486                 0	620.000000
J1488                 0	615.000000	52.636500	-
J1490                 0	610.000000	30.307500	-
J1492                 0	605.000000	23.908500	-
J1494                 0	605.000000	23.908500	-
J1496                 0	600.000000	23.179500	-
J1498                 0	570.000000	39.852000	-
J150                  0	526.000000
J1500                 0	600.000000	4.050000	-
J1502                 0	600.000000	35.086500	-
J1504                 0	605.000000	28.701000	-
J1506                 0	600.000000	76.585500	-
J1508                 0	595.000000	26.311500	-
J1510                 0	585.000000	20.722500	-
J1512                 0	590.000000	20.722500	-
J1514                 0	585.000000	20.722500	-
J1516                 0	600.000000	54.243000	-
J1518                 0	605.000000	46.278000	-
J152                  0	527.000000	22.612500	-
J1520                 0	605.000000	17.536500	-
J1522                 0	610.000000	46.251000	-
J1524                 0	605.000000	39.879000	-
J1526                 0	593.000000	59.035500	-
J1528                 0	610.000000	30.307500	-
J1530                 0	585.000000	90.922500	-
J1532                 0	584.000000	51.030000	-
J1534                 0	586.000000	39.879000	-
J1536                 0	586.000000	60.642000	-
J1538                 0	592.000000	84.550500	-
J154                  0	527.000000
J1540                 0	600.000000	84.564000	-
J1542                 0	605.000000	79.758000	-
J1544                 0	605.000000	46.278000	-
J1546                 0	583.000000	28.728000	-
J1548                 0	580.000000	82.971000	-
J1550                 0	600.000000	49.450500	-
J1552                 0	606.000000	27.121500	-
J1554                 0	610.000000	20.722500	-
J1556                 0	614.000000	23.935500	-
J1558                 0	580.000000	22.329000	-
J156                  0	490.000000
J1560                 0	580.000000	28.728000	-
J1562                 0	603.000000	87.736500	-
J1564                 0	580.000000	25.515000	-
J1566                 0	584.000000	156.357000	-
J1568                 0	583.000000	9.571500	-
J1570                 0	615.000000	38.286000	-
J1572                 0	615.000000	38.286000	-
J1574                 0	615.000000	38.286000	-
J1576                 0	578.000000	27.121500	-
J1578                 0	580.000000	14.364000	-
J1580                 0	579.000000	25.515000	-
J1582                 0	600.000000	47.884500	-
J1584                 0	573.000000	81.364500	-
J1586                 0	577.000000	19.440000	-
J1588                 0	600.000000	111.645000	-
J1590                 0	607.000000	26.311500	-
J1592                 0	595.000000	52.636500	-
J1594                 0	595.000000	52.636500	-
J1596                 0	605.000000	63.801000	-
J1598                 0	595.000000	39.879000	-
J1600                 0	600.000000	20.722500	-
J1604                 0	595.000000	20.722500	-
J1606                 0	565.000000	52.636500	-
J1608                 0	575.000000	30.793500	-
J1610                 0	580.000000	29.835000	-
J1612                 0	595.000000	30.793500	-
J1614                 0	595.000000	29.700000	-
J1616                 0	615.000000	202.500000	-
J1618                 0	585.000000	30.793500	-
J162                  0	450.000000
J1620                 0	595.000000	20.722500	-
J1622                 0	595.000000	20.722500	-
J1624                 0	585.000000	20.722500	-
J1626                 0	573.000000	27.121500	-
J1628                 0	605.000000	42.295500	-
J1630                 0	605.000000	111.685500	-
J1632                 0	610.000000	98.955000	-
J1634                 0	605.000000	42.295500	-
J1636                 0	600.000000	38.286000	-
J1638                 0	607.000000	25.515000	-
J164                  0	533.000000
J1640                 0	605.000000	26.325000	-
J1642                 0	600.000000	49.612500	-
J1644                 0	595.000000	39.879000	-
J1646                 0	575.000000	49.450500	-
J1648                 0	573.000000
J1650                 0	605.000000	36.693000	-
J1652                 0	595.000000	5.737500	-
J1654                 0	607.000000	22.329000	-
J1656                 0	590.000000	47.884500	-
J1658                 0	530.000000
J166                  0	447.000000	9.099000	-
J1660                 0	530.000000
J1662                 0	550.000000
J1664                 0	550.000000	22.612500	-
J1666                 0	550.000000	22.612500	-
J1668                 0	588.000000	22.612500	-
J1670                 0	530.000000
J1672                 0	500.000000
J1674                 0	500.000000	22.612500	-
J1676                 0	500.000000	22.612500	-
J1678                 0	520.000000	22.612500	-
J168                  0	532.000000	5.737500	-
J1680                 0	475.000000
J1682                 0	518.000000	31.730000	-
J1686                 0	520.000000	10.800000	-
J1688                 0	500.000000
J1690                 0	520.000000	22.612500	-
J1692                 0	565.000000
J1694                 0	567.000000
J1696                 0	550.000000	49.869000	-
J1698                 0	565.000000	49.869000	-
J170                  0	450.000000	4.050000	-
J1700                 0	565.000000
J1702                 0	565.000000	49.869000	-
J1704                 0	563.000000	49.869000	-
J1706                 0	560.000000	49.869000	-
J1708                 0	740.000000	-100.000000	-
J1710                 0	730.000000	-100.000000	-
J1712                 0	715.000000	-100.000000	-
J1714                 0	690.000000	-100.000000	-
J1716                 0	695.000000	-100.000000	-
J172                  0	533.000000
J1720                 0	685.000000	-100.000000	-
J1722                 0	685.000000	-200.000000	-
J1724                 0	672.000000	-130.000000	-
J1728                 0	584.000000
J1730                 0	595.000000	5.400000	-
J1732                 0	590.000000
J1734                 0	570.000000	5.400000	-
J1736                 0	560.000000	-2178.000000	-
J1738                 0	620.000000
J174                  0	575.000000	9.100000	-
J1740                 0	600.000000	-225.000000	-
J1742                 0	600.000000	-225.000000	-
J1744                 0	614.000000	2.700000	-
J1746                 0	600.000000
J1748                 0	599.000000	27.850000	-
J1750                 0	575.000000
J1752                 0	603.000000	69.250000	-
J1754                 0	590.000000	6.750000	-
J1756                 0	575.000000
J1758                 0	590.000000	69.250000	-
J176                  0	525.000000
J1760                 0	540.000000
J1762                 0	540.000000	-175.000000	-
J1764                 0	540.000000	-120.000000	-
J1766                 0	580.000000
J1768                 0	590.000000
J1770                 0	620.000000	69.255000	-
J1772                 0	630.000000
J1774                 0	630.000000	13.500000	-
J1776                 0	609.000000
J1778                 0	632.000000	69.322500	-
J1780                 0	562.000000	-560.000000	-
J1782                 0	475.000000	2.443500	-
J1784                 0	450.000000	1.134000	-
J1786                 0	600.000000	4.050000	-
J1790                 0	540.000000
J1792                 0	541.000000
J1794                 0	525.000000
J1796                 0	614.000000
J1798                 0	675.000000	5.400000	-
J180                  0	525.000000
J1800                 0	550.000000
J1802                 0	575.000000	10.935000	-
J1804                 0	610.000000
J1806                 0	560.000000
J1808                 0	630.000000
J1810                 0	630.000000	2.862000	-
J1812                 0	610.000000
J1814                 0	610.000000	54.000000	-
J1816                 0	610.000000
J182                  0	490.000000
J1820                 0	600.000000
J1822                 0	570.000000
J1824                 0	570.000000	5.737500	-
J1826                 0	570.000000
J1828                 0	570.000000
J1830                 0	570.000000
J1832                 0	565.000000	22.936500	-
J1834                 0	600.000000
J1836                 0	585.000000
J1838                 0	585.000000
J184                  0	565.000000
J1842                 0	555.000000	14.337000	-
J1844                 0	476.000000
J1846                 0	540.000000	2.700000	-
J1848                 0	533.000000
J1850                 0	533.000000
J1852                 0	490.000000
J1854                 0	555.000000	17.199000	-
J1856                 0	565.000000
J1858                 0	565.000000
J1860                 0	485.000000
J1862                 0	640.000000	22.936500	-
J1864                 0	635.000000
J1866                 0	570.000000
J1868                 0	550.000000
J1870                 0	550.000000
J1872                 0	550.000000
J1874                 0	560.000000
J1876                 0	605.000000
J1878                 0	605.000000	28.674000	-
J188                  0	500.000000
J1880                 0	605.000000
J1882                 0	560.000000
J1884                 0	580.000000	2.700000	-
J1886                 0	600.000000	2.700000	-
J1888                 0	584.000000
J1890                 0	550.000000	14.337000	-
J1892                 0	575.000000
J1894                 0	550.000000	2.862000	-
J1896                 0	615.000000
J1898                 0	625.000000	98.550000	-
J190                  0	515.000000
J1900                 0	650.000000	98.550000	-
J1902                 0	637.000000	98.550000	-
J1904                 0	625.000000
J1906                 0	630.000000	33.750000	-
J1908                 0	573.000000	54.000000	-
J1910                 0	575.000000	81.000000	-
J1912                 0	570.000000	81.000000	-
J1914                 0	570.000000	47.250000	-
J1916                 0	585.000000	54.000000	-
J1918                 0	560.000000
J192                  0	555.000000	14.337000	-
J1920                 0	560.000000
J1922                 0	520.000000
J194                  0	515.000000	4.050000	-
J196                  0	580.000000
J204                  0	565.000000
J206                  0	580.000000
J208                  0	570.000000
J210                  0	550.000000
J212                  0	575.000000
J214                  0	620.000000	43.065000	-
J216                  0	605.000000	51.043500	-
J218                  0	600.000000	60.642000	-
J220                  0	578.000000	22.369500	-
J222                  0	600.000000	35.100000	-
J224                  0	580.000000	102.114000	-
J226                  0	600.000000	35.100000	-
J228                  0	610.000000	111.685500	-
J230                  0	605.000000	51.043500	-
J244                  0	585.000000	22.342500	-
J246                  0	615.000000	39.892500	-
J248                  0	620.000000
J250                  0	605.000000	73.399500	-
J252                  0	560.000000	52.650000	-
J254                  0	590.000000	30.307500	-
J256                  0	617.000000	70.213500	-
J258                  0	584.000000	51.043500	-
J26                   0	590.000000
J260                  0	587.000000
J262                  0	593.000000	30.307500	-
J264                  0	605.000000	28.701000	-
J266                  0	580.000000
J268                  0	600.000000
J270                  0	580.000000	52.771500	-
J28                   0	685.000000
J280                  0	575.000000	30.793500	-
J282                  0	750.000000
J30                   0	690.000000	1.350000	-
J32                   0	630.000000	3.915000	-
J34                   0	640.000000	14.337000	-
J36                   0	660.000000	7.830000	-
J40                   0	580.000000
J44                   0	600.000000
J534                  0	508.000000	10.125000	-
J536                  0	602.000000	28.620000	-
J538                  0	490.000000	-44.000000	-
J556                  0	750.000000
J56                   0	665.000000
J568                  0	625.000000
J570                  0	620.000000
J572                  0	640.000000
J58                   0	625.000000
J600                  0	750.000000
J62                   0	503.000000
J64                   0	508.000000
J66                   0	508.000000
J68                   0	509.000000	10.125000	-
J70                   0	509.000000	10.125000	-
J72                   0	508.000000
J74                   0	508.000000	10.125000	-
J82                   0	512.000000	93.433500	-
J84                   0	665.000000
J86                   0	600.000000	5.800000	-
J90                   0	600.000000
J94                   0	595.000000
J96                   0	600.000000	3.480000	-
J98                   0	590.000000
U7000_NU  1	600.000000
U7000_ND  1	600.000000
U7004_NU  1	602.000000
U7004_ND  1	602.000000
U7006_NU  1	560.000000
U7006_ND  1	560.000000
U7034_NU  1	602.000000
U7034_ND  1	602.000000
U7078_NU  1	600.000000
U7078_ND  1	600.000000
U7080_NU  1	673.000000
U7080_ND  1	673.000000
U7082_NU  1	530.000000
U7082_ND  1	530.000000
U7086_NU  1	645.000000
U7086_ND  1	645.000000
U7088_NU  1	600.000000
U7088_ND  1	600.000000
U7090_NU  1	694.000000
U7090_ND  1	694.000000
U7092_NU  1	610.000000
U7092_ND  1	610.000000
U7096_NU  1	600.000000
U7096_ND  1	600.000000
U7098_NU  1	570.000000
U7098_ND  1	570.000000
U7100_NU  1	520.000000
U7100_ND  1	520.000000
U7102_NU  1	570.000000
U7102_ND  1	570.000000
U7104_NU  1	585.000000
U7104_ND  1	585.000000
V8006_NU  1	530.000000
V8006_ND  1	530.000000
V8008_NU  1	490.000000
V8008_ND  1	490.000000
V8010_NU  1	560.000000
V8010_ND  1	560.000000
V8012_NU  1	555.000000
V8012_ND  1	555.000000
V8014_NU  1	570.000000
V8014_ND  1	570.000000
V8016_NU  1	450.000000
V8016_ND  1	450.000000
V8018_NU  1	515.000000
V8018_ND  1	515.000000
V8020_NU  1	595.000000
V8020_ND  1	595.000000

[RESERVOIRS]
RES9008	0	621.000000	-
RES9010	0	612.000000	-
RES9014	0	677.000000	-
RES9016	0	790.000000	-

[TANKS]
T5000	0	616.000000	0.500000	4.000000	2.000000	5.000000	0.000000	-
T5006	0	651.000000	0.500000	5.000000	2.000000	5.000000	0.000000	-
T5030	0	620.000000	20.500000	25.000000	22.000000	5.000000	0.000000	-
T5034	0	532.000000	0.500000	4.000000	2.000000	5.000000	0.000000	-
T5036	0	588.000000	0.500000	5.000000	2.000000	5.000000	0.000000	-
T5038	0	563.000000	0.500000	5.000000	2.000000	5.000000	0.000000	-
T5040	0	715.000000	0.500000	5.000000	2.000000	5.000000	0.000000	-
T5042	0	600.000000	0.500000	5.000000	2.000000	5.000000	0.000000	-
T5044	0	630.000000	0.500000	5.000000	2.000000	5.000000	0.000000	-
T5050	0	696.000000	0.500000	5.000000	2.000000	5.000000	0.000000	-
T5052	0	750.000000	0.500000	5.000000	2.000000	5.000000	0.000000	-
T5054	0	570.000000	0.500000	5.000000	2.000000	5.000000	0.000000	-
T5056	0	680.000000	0.500000	5.000000	2.000000	5.000000	0.000000	-

[PIPES]
P1189	J556                	J600                	0	-	1508.410000	600.000000	110.000000	0.000000	0	0
P1201	J568                	J58                 	0	-	193.027500	600.000000	110.000000	0.000000	0	0
P1203	J570                	J568                	0	-	376.610000	600.000000	110.000000	0.000000	0	0
P1205	J570                	J572                	0	-	1210.620000	100.000000	110.000000	0.000000	0	0
P1237	J600                	J282                	0	-	678.570000	600.000000	110.000000	0.000000	0	0
P1963	J1780               	T5054               	0	-	113.090000	300.000000	110.000000	0.000000	0	0
P1979	J1230               	J1244               	0	-	73.760000	400.000000	110.000000	0.000000	0	0
P1981	J1244               	J1240               	0	-	210.940000	400.000000	110.000000	0.000000	0	0
P1987	J1246               	J1830               	0	-	13.830000	400.000000	110.000000	0.000000	0	0
P1989	J204                	J1248               	0	-	192.560000	200.000000	110.000000	0.000000	0	0
P1991	J1830               	J1250               	0	-	64.940000	200.000000	110.000000	0.000000	0	0
P1993	J1250               	J1248               	0	-	16.540000	200.000000	110.000000	0.000000	0	0
P1995	J1250               	J196                	0	-	341.440000	200.000000	110.000000	0.000000	0	0
P1999	J1828               	J1236               	0	-	338.180000	400.000000	110.000000	0.000000	0	0
P2001	J1244               	J1252               	0	-	39.710000	400.000000	110.000000	0.000000	0	0
P2005	J1830               	J1252               	0	-	65.250000	400.000000	110.000000	0.000000	0	0
P2007	J1866               	J1410               	0	-	3205.830000	300.000000	110.000000	0.000000	0	0
P2009	T5030               	J1254               	0	-	224.730000	300.000000	110.000000	0.000000	0	0
P2011	J1824               	J1234               	0	-	240.307919	400.000000	110.000000	0.000000	0	0
P2013	J1822               	J1232               	0	-	241.390000	400.000000	110.000000	0.000000	0	0
P2015	J1256               	T5006               	0	-	1823.740000	700.000000	110.000000	0.000000	0	0
P2027	J266                	J1264               	0	-	54.430000	300.000000	110.000000	0.000000	0	0
P2029	J1252               	J1820               	0	-	3969.770000	400.000000	110.000000	0.000000	0	0
P2031	J270                	J1268               	0	-	325.490000	200.000000	110.000000	0.000000	0	0
P2033	J1268               	J1270               	0	-	315.520000	200.000000	110.000000	0.000000	0	0
P2035	J266                	J1272               	0	-	56.690000	400.000000	110.000000	0.000000	0	0
P2037	J1884               	J1268               	0	-	780.880000	100.000000	110.000000	0.000000	0	0
P2039	J204                	J1274               	0	-	729.680000	200.000000	110.000000	0.000000	0	0
P2041	J1274               	J1276               	0	-	18.290998	200.000000	110.000000	0.000000	0	0
P2043	J1274               	J1270               	0	-	173.760000	200.000000	110.000000	0.000000	0	0
P2045	J196                	J1278               	0	-	184.420000	200.000000	110.000000	0.000000	0	0
P2047	J1278               	J1280               	0	-	3.870000	200.000000	110.000000	0.000000	0	0
P2049	J1280               	J1282               	0	-	702.880000	200.000000	110.000000	0.000000	0	0
P2051	J1282               	J1284               	0	-	545.970000	200.000000	110.000000	0.000000	0	0
P2053	J1284               	T5006               	0	-	216.150000	200.000000	110.000000	0.000000	0	0
P2055	J1284               	J1286               	0	-	59.030000	200.000000	110.000000	0.000000	0	0
P2057	U7086_ND	J1286               	1	U7086	82.660000	200.000000	110.000000	0.000000	0	0
P2059	J1286               	J1288               	0	-	94.080000	200.000000	110.000000	0.000000	0	0
P2061	J1288               	J1290               	0	-	391.060000	200.000000	110.000000	0.000000	0	0
P2063	J1290               	J1292               	0	-	77.580000	200.000000	110.000000	0.000000	0	0
P2065	J1292               	J1294               	0	-	712.660000	150.000000	110.000000	0.000000	0	0
P2067	J1294               	J1298               	0	-	798.880000	100.000000	110.000000	0.000000	0	0
P2069	J1300               	T5006               	0	-	98.240000	400.000000	110.000000	0.000000	0	0
P2071	J1300               	J1290               	0	-	460.290000	200.000000	110.000000	0.000000	0	0
P2073	J214                	J1302               	0	-	359.940000	300.000000	110.000000	0.000000	0	0
P2075	J1302               	J1304               	0	-	626.690000	300.000000	110.000000	0.000000	0	0
P2077	J1304               	J1306               	0	-	5.590000	300.000000	110.000000	0.000000	0	0
P2079	J1306               	J1308               	0	-	28.570000	100.000000	110.000000	0.000000	0	0
P2081	J1292               	J1310               	0	-	59.310000	200.000000	110.000000	0.000000	0	0
P2083	J1310               	J214                	0	-	495.740000	100.000000	110.000000	0.000000	0	0
P2085	J1310               	J1312               	0	-	214.790000	200.000000	110.000000	0.000000	0	0
P2087	J1312               	J1302               	0	-	30.680000	150.000000	110.000000	0.000000	0	0
P2089	J1312               	J1314               	0	-	1175.120000	150.000000	110.000000	0.000000	0	0
P2091	J1314               	J1316               	0	-	239.190000	150.000000	110.000000	0.000000	0	0
P2093	J1316               	J1318               	0	-	301.280000	150.000000	110.000000	0.000000	0	0
P2095	J1318               	J1304               	0	-	1142.410000	400.000000	110.000000	0.000000	0	0
P2097	J1316               	J1318               	0	-	847.930000	100.000000	110.000000	0.000000	0	0
P2099	J1314               	J192                	0	-	195.860000	150.000000	110.000000	0.000000	0	0
P2101	J192                	J1320               	0	-	48.300000	150.000000	110.000000	0.000000	0	0
P2103	J1320               	J1322               	0	-	5.180000	150.000000	110.000000	0.000000	0	0
P2105	J1322               	V8012_NU	2	V8012	45.700000	200.000000	110.000000	0.000000	0	0
P2107	J1324               	J1326               	0	-	341.350000	200.000000	110.000000	0.000000	0	0
P2109	J1326               	J1328               	0	-	768.930000	150.000000	110.000000	0.000000	0	0
P2111	J1324               	J1330               	0	-	119.910000	200.000000	110.000000	0.000000	0	0
P2113	J182                	J180                	0	-	340.120000	150.000000	110.000000	0.000000	0	0
P2115	J184                	J1332               	0	-	497.950000	150.000000	110.000000	0.000000	0	0
P2117	J1332               	J172                	0	-	1671.090000	150.000000	110.000000	0.000000	0	0
P2119	J1332               	J1334               	0	-	24.600000	100.000000	110.000000	0.000000	0	0
P2121	J1334               	J1858               	0	-	485.550000	100.000000	110.000000	0.000000	0	0
P2123	J1336               	J1338               	0	-	598.680000	100.000000	110.000000	0.000000	0	0
P2125	J1336               	J1340               	0	-	371.070000	150.000000	110.000000	0.000000	0	0
P2127	J1340               	J1342               	0	-	417.510000	100.000000	110.000000	0.000000	0	0
P2129	J1342               	J1344               	0	-	185.830000	100.000000	110.000000	0.000000	0	0
P2131	J1340               	J1346               	0	-	187.840000	100.000000	110.000000	0.000000	0	0
P2133	J188                	J1348               	0	-	321.060000	100.000000	110.000000	0.000000	0	0
P2135	J1348               	J1350               	0	-	560.040000	100.000000	110.000000	0.000000	0	0
P2137	J1306               	J1352               	0	-	570.210000	100.000000	110.000000	0.000000	0	0
P2139	J1352               	J1354               	0	-	1054.200000	150.000000	110.000000	0.000000	0	0
P2141	J1356               	J216                	0	-	383.320000	400.000000	110.000000	0.000000	0	0
P2143	J220                	J1358               	0	-	96.690000	200.000000	110.000000	0.000000	0	0
P2145	J1358               	J1360               	0	-	131.430000	200.000000	110.000000	0.000000	0	0
P2147	J1358               	J1362               	0	-	410.270000	100.000000	110.000000	0.000000	0	0
P2149	J1352               	J1364               	0	-	174.910000	100.000000	110.000000	0.000000	0	0
P2151	J1364               	J1366               	0	-	893.750000	100.000000	110.000000	0.000000	0	0
P2153	J1366               	J1364               	0	-	249.750000	100.000000	110.000000	0.000000	0	0
P2155	J1366               	J1368               	0	-	23.860000	100.000000	110.000000	0.000000	0	0
P2157	J1322               	J1368               	0	-	256.740000	150.000000	110.000000	0.000000	0	0
P2159	J1368               	J1370               	0	-	78.560000	150.000000	110.000000	0.000000	0	0
P2161	J1370               	V8010_NU	2	V8010	53.551953	250.000000	110.000000	0.000000	0	0