[TITLE]
Scenario: Base 
Date: 29/11/2011 2:00:23 PM 

[JUNCTIONS]
 29                                  957.0000
 31                                  956.0000
 33                                  957.0000
 35                                  953.0000
 37                                  938.0000
 39                                  932.0000
 43                                  931.0000
 49                                  939.0000
 51                                  951.0000
 53                                  951.0000
 55                                  928.0000
 59                                  938.0000
 61                                  938.0000
 63                                  925.0000
 65                                  930.0000
 67                                  928.0000
 69                                  926.0000
 71                                  928.0000
 73                                  930.0000
 75                                  930.0000
 77                                  928.0000
 79                                  930.0000
 81                                  926.0000
 83                                  926.0000
 85                                  928.0000
 87                                  945.0000
 89                                  941.0000
 91                                  944.0000
 93                                  950.0000
 95                                  950.0000
 97                                  945.0000
 99                                  943.0000
 101                                 943.0000
 103                                 935.0000
 105                                 931.0000
 107                                 940.0000
 109                                 940.0000
 113                                 936.0000
 115                                 936.0000
 117                                 935.0000
 119                                 936.0000
 121                                 936.0000
 123                                 938.0000
 125                                 930.0000
 127                                 930.0000
 133                                 917.0000
 135                                 917.0000
 137                                 904.0000
 139                                 909.0000
 149                                 922.0000
 151                                 931.0000
 153                                 931.0000
 155                                 934.0000
 160                                 931.0000
 162                                 931.0000
 164                                 940.0000
 166                                 952.0000
 168                                 951.0000
 170                                 936.0000
 172                                 923.0000
 174                                 923.0000
 176                                 925.0000
 178                                 926.0000
 180                                 931.0000
 182                                 923.0000
 184                                 927.0000
 186                                 925.0000
 194                                 935.0000
 196                                 934.0000
 200                                 931.0000
 204                                 938.0000
 206                                 940.0000
 208                                 944.0000
 210                                 944.0000
 213                                 936.0000
 217                                 934.0000
 219                                 937.0000
 221                                 939.0000
 223                                 945.0000
 226                                 932.0000
 228                                 940.0000
 231                                 943.0000
 236                                 951.0000
 239                                 932.0000
 241                                 951.0000
 243                                 935.0000
 245                                 933.0000
 247                                 934.0000
 249                                 936.0000
 251                                 935.0000
 256                                 937.0000
 259                                 925.0000
 261                                 915.0000
 263                                 907.0000
 265                                 900.0000
 269                                 900.0000
 271                                 900.0000
 274                                 895.0000
 278                                 900.0000
 280                                 928.0000
 282                                 911.0000
 284                                 910.0000
 286                                 912.0000
 288                                 911.0000
 290                                 918.0000
 293                                 925.0000
 295                                 923.0000
 297                                 920.0000
 299                                 930.0000
 301                                 928.0000
 303                                 927.0000
 306                                 930.0000
 308                                 929.0000
 310                                 926.0000
 312                                 921.0000
 314                                 929.0000
 324                                 936.0000
 331                                 928.0000
 333                                 937.0000
 339                                 907.0000
 342                                 907.0000
 344                                 925.0000
 346                                 925.0000
 348                                 923.0000
 350                                 921.0000
 353                                 900.0000
 357                                 912.0000
 359                                 928.0000
 361                                 928.0000
 363                                 911.0000
 365                                 911.0000
 367                                 910.0000
 369                                 925.0000
 373                                 911.0000
 376                                 925.0000
 378                                 912.0000
 380                                 928.0000
 382                                 928.0000
 384                                 928.0000
 386                                 928.0000
 388                                 928.0000
 390                                 926.0000
 394                                 930.0000
 398                                 924.0000
 404                                 929.0000
 408                                 936.0000
 410                                 938.0000
 412                                 930.0000
 414                                 937.0000
 418                                 938.0000
 420                                 930.0000
 422                                 940.0000
 424                                 939.0000
 434                                 896.0000
 436                                 895.0000
 438                                 945.0000
 440                                 897.0000
 442                                 882.0000
 444                                 900.0000
 446                                 900.0000
 448                                 904.0000
 452                                 913.0000
 454                                 900.0000
 455                                 922.0000
 457                                 903.0000
 459                                 915.0000
 461                                 900.0000
 463                                 889.0000
 465                                 895.0000
 467                                 912.0000
 471                                 931.0000
 473                                 936.0000
 475                                 938.0000
 477                                 940.0000
 480                                 957.0000
 482                                 946.0000
 484                                 947.0000
 489                                 937.0000
 491                                 937.0000
 493                                 938.0000
 495                                 937.0000
 497                                 937.0000
 503                                 940.0000
 505                                 930.0000
 507                                 916.0000
 523                                 929.0000
 533                                 923.0000
 535                                 920.0000
 537                                 910.0000
 539                                 937.0000
 541                                 938.0000
 543                                 937.0000
 545                                 926.0000
 550                                 923.0000
 552                                 928.0000
 554                                 940.0000
 558                                 914.0000
 560                                 912.0000
 562                                 905.0000
 566                                 906.0000
 568                                 906.0000
 571                                 909.0000
 575                                 901.0000
 577                                 914.0000
 579                                 911.0000
 581                                 915.0000
 583                                 903.0000
 585                                 905.0000
 587                                 904.0000
 589                                 906.0000
 595                                 898.0000
 597                                 911.0000
 599                                 910.0000
 601                                 913.0000
 603                                 916.0000
 607                                 914.0000
 609                                 908.0000
 611                                 914.0000
 613                                 900.0000
 617                                 918.0000
 621                                 924.0000
 623                                 923.0000
 626                                 924.0000
 627                                 923.0000
 629                                 900.0000
 631                                 899.0000
 634                                 888.0000
 638                                 900.0000
 640                                 900.0000
 642                                 900.0000
 644                                 900.0000
 646                                 900.0000
 648                                 901.0000
 654                                 932.0000
 656                                 934.0000
 658                                 942.0000
 660                                 926.0000
 662                                 926.0000
 664                                 935.0000
 666                                 941.0000
 669                                 941.0000
 673                                 942.0000
 675                                 942.0000
 678                                 942.0000
 680                                 942.0000
 682                                 934.0000
 684                                 931.0000
 686                                 932.0000
 688                                 937.0000
 690                                 937.0000
 692                                 937.0000
 694                                 933.0000
 696                                 917.0000
 698                                 926.0000
 700                                 923.0000
 702                                 923.0000
 711                                 934.0000
 713                                 935.0000
 715                                 932.0000
 717                                 933.0000
 719                                 933.0000
 723                                 932.0000
 725                                 921.0000
 728                                 915.0000
 730                                 903.0000
 732                                 903.0000
 734                                 913.0000
 738                                 913.0000
 740                                 904.0000
 742                                 917.0000
 745                                 922.0000
 747                                 923.0000
 749                                 923.0000
 751                                 930.0000
 754                                 904.0000
 756                                 909.0000
 758                                 918.0000
 761                                 920.0000
 763                                 923.0000
 767                                 928.0000
 769                                 922.0000
 771                                 921.0000
 773                                 918.0000
 775                                 913.0000
 777                                 901.0000
 779                                 904.0000
 781                                 907.0000
 783                                 907.0000
 785                                 905.0000
 787                                 903.0000
 789                                 904.0000
 791                                 909.0000
 795                                 930.0000
 797                                 922.0000
 799                                 920.0000
 801                                 917.0000
 803                                 917.0000
 805                                 916.0000
 807                                 914.0000
 809                                 902.0000
 811                                 922.0000
 813                                 911.0000
 815                                 909.0000
 817                                 911.0000
 819                                 920.0000
 821                                 924.0000
 823                                 906.0000
 829                                 899.0000
 832                                 887.0000
 836                                 906.0000
 838                                 887.0000
 840                                 900.0000
 842                                 920.0000
 851                                 926.0000
 855                                 925.0000
 857                                 912.0000
 859                                 909.0000
 862                                 929.0000
 864                                 916.0000
 866                                 902.0000
 869                                 901.0000
 871                                 915.0000
 873                                 903.0000
 875                                 902.0000
 881                                 916.0000
 882                                 925.0000
 885                                 938.0000
 887                                 938.0000
 889                                 926.0000
 891                                 940.0000
 893                                 925.0000
 896                                 921.0000
 898                                 936.0000
 900                                 935.0000
 902                                 921.0000
 904                                 922.0000
 906                                 922.0000
 908                                 921.0000
 910                                 910.0000
 912                                 896.0000
 915                                 895.0000
 917                                 936.0000
 919                                 935.0000
 923                                 922.0000
 931                                 906.0000
 933                                 889.0000
 935                                 895.0000
 937                                 889.0000
 939                                 892.0000
 941                                 915.0000
 943                                 918.0000
 945                                 920.0000
 947                                 922.0000
 949                                 921.0000
 951                                 901.0000
 953                                 929.0000
 956                                 918.0000
 958                                 920.0000
 960                                 922.0000
 962                                 922.0000
 964                                 921.0000
 966                                 918.0000
 968                                 910.0000
 972                                 922.0000
 975                                 922.0000
 977                                 923.0000
 979                                 916.0000
 981                                 916.0000
 983                                 920.0000
 985                                 922.0000
 987                                 927.0000
 989                                 923.0000
 990                                 911.0000
 992                                 925.0000
 994                                 922.0000
 996                                 926.0000
 998                                 920.0000
 1000                                925.0000
 1009                                926.0000
 1012                                909.0000
 1014                                901.0000
 1016                                902.0000
 1018                                901.0000
 1020                                894.0000
 1023                                869.0000
 1027                                900.0000
 1029                                890.0000
 1031                                915.0000
 1035                                908.0000
 1037                                911.0000
 1039                                935.0000
 1041                                934.0000
 1043                                934.0000
 1045                                934.0000
 1047                                931.0000
 1049                                930.0000
 1051                                926.0000
 1053                                925.0000
 1055                                924.0000
 1057                                921.0000
 1059                                931.0000
 1061                                905.0000
 1063                                907.0000
 1065                                902.0000
 1069                                904.0000
 1071                                905.0000
 1076                                907.0000
 1078                                936.0000
 1080                                935.0000
 1083                                927.0000
 1085                                925.0000
 1087                                910.0000
 1090                                907.0000
 1092                                904.0000
 1096                                901.0000
 1098                                937.0000
 1100                                927.0000
 1102                                929.0000
 1104                                930.0000
 1106                                929.0000
 1108                                927.0000
 1111                                894.0000
 1113                                930.0000
 1115                                930.0000
 1119                                925.0000
 1121                                928.0000
 1127                                905.0000
 1129                                940.0000
 1131                                905.0000
 1133                                903.0000
 1135                                933.0000
 1137                                931.0000
 1139                                924.0000
 1141                                911.0000
 1143                                907.0000
 1145                                904.0000
 1147                                904.0000
 1149                                908.0000
 1151                                907.0000
 1153                                910.0000
 1155                                909.0000
 1157                                910.0000
 1159                                908.0000
 1161                                937.0000
 1165                                904.0000
 1167                                940.0000
 1169                                910.0000
 1172                                913.0000
 1174                                956.0000
 1175                                942.0000
 1177                                943.0000
 1179                                933.0000
 1181                                925.0000
 1183                                927.0000
 1185                                930.0000
 1187                                925.0000
 1189                                927.0000
 1191                                925.0000
 1193                                930.0000
 1195                                924.0000
 1197                                925.0000
 1199                                923.0000
 1201                                925.0000
 1203                                926.0000
 1206                                930.0000
 1208                                930.0000
 1210                                940.0000
 1217                                940.0000
 1219                                938.0000
 1221                                938.0000
 1223                                936.0000
 1225                                935.0000
 1227                                911.0000
 1229                                935.0000
 1231                                934.0000
 1233                                934.0000
 1235                                934.0000
 1238                                934.0000
 1242                                939.0000
 1244                                938.0000
 1246                                934.0000
 1249                                937.0000
 1251                                939.0000
 1253                                939.0000
 1255                                939.0000
 1257                                940.0000
 1260                                941.0000
 1262                                930.0000
 1264                                935.0000
 1266                                935.0000
 1268                                938.0000
 1270                                939.0000
 1272                                937.0000
 1274                                936.0000
 1276                                937.0000
 1278                                935.0000
 1279                                942.0000
 1281                                929.0000
 1283                                930.0000
 1285                                937.0000
 1287                                933.0000
 1289                                928.0000
 1291                                943.0000
 1293                                934.0000
 1295                                943.0000
 1297                                902.0000
 1301                                930.0000
 1304                                930.0000
 1306                                930.0000
 1310                                922.0000
 1315                                918.0000
 1316                                920.0000
 1318                                907.0000
 1320                                900.0000
 1322                                883.0000
 1324                                883.0000
 1326                                884.0000
 1328                                882.0000
 1330                                908.0000
 1332                                894.0000
 1334                                896.0000
 1336                                898.0000
 1338                                904.0000
 1342                                895.0000
 1344                                897.0000
 1346                                898.0000
 1348                                900.0000
 1350                                902.0000
 1352                                900.0000
 1355                                917.0000
 1356                                914.0000
 1358                                912.0000
 1360                                906.0000
 1363                                903.0000
 1365                                907.0000
 1367                                907.0000
 1369                                899.0000
 1371                                898.0000
 1373                                880.0000
 1379                                879.0000
 1381                                883.0000
 1387                                879.0000
 1389                                893.0000
 1391                                900.0000
 1393                                900.0000
 1395                                900.0000
 1397                                904.0000
 1400                                909.0000
 1403                                911.0000
 1405                                909.0000
 1407                                900.0000
 1420                                907.0000
 1424                                903.0000
 1428                                914.0000
 1430                                913.0000
 1432                                912.0000
 1437                                912.0000
 1439                                906.0000
 1444                                913.0000
 1447                                916.0000
 1455                                900.0000
 1457                                900.0000
 1461                                897.0000
 1467                                871.0000
 1469                                864.0000
 1471                                899.0000
 1474                                900.0000
 1477                                906.0000
 1484                                913.0000
 1488                                901.0000
 1490                                901.0000
 1492                                907.0000
 1495                                900.0000
 1498                                901.0000
 1502                                902.0000
 1505                                920.0000
 1507                                916.0000
 1509                                913.0000
 1513                                902.0000
 1521                                908.0000
 1523                                900.0000
 1525                                886.0000
 1527                                879.0000
 1529                                884.0000
 1531                                879.0000
 1537                                872.0000
 1541                                904.0000
 1548                                906.0000
 1554                                915.0000
 1556                                900.0000
 1558                                911.0000
 1560                                903.0000
 1563                                910.0000
 1565                                900.0000
 1567                                900.0000
 1569                                900.0000
 1571                                900.0000
 1573                                935.0000
 1575                                932.0000
 1577                                915.0000
 1579                                916.0000
 1581                                916.0000
 1583                                929.0000
 1585                                916.0000
 1589                                929.0000
 1591                                929.0000
 1593                                937.0000
 1595                                936.0000
 1599                                933.0000
 1601                                901.0000
 1603                                909.0000
 1605                                904.0000
 1607                                920.0000
 1611                                930.0000
 1613                                929.0000
 1615                                917.0000
 1617                                916.0000
 1619                                917.0000
 1621                                930.0000
 1623                                926.0000
 1625                                910.0000
 1627                                913.0000
 1629                                928.0000
 1631                                917.0000
 1634                                917.0000
 1637                                925.0000
 1639                                933.0000
 1642                                915.0000
 1645                                927.0000
 1647                                925.0000
 1649                                935.0000
 1651                                930.0000
 1655                                940.0000
 1659                                933.0000
 1661                                941.0000
 1663                                941.0000
 1665                                941.0000
 1667                                937.0000
 1669                                927.0000
 1671                                944.0000
 1677                                945.0000
 1679                                946.0000
 1681                                947.0000
 1684                                944.0000
 1686                                944.0000
 1689                                941.0000
 1691                                940.0000
 1693                                940.0000
 1696                                938.0000
 1698                                938.0000