[TITLE]
Scenario: Feed Falaj Al Sham Tower & Sunab Reservoir 
Date: 2/4/2018 5:26:02 PM 

[CURVES]
;PUMP:
PMP-1 0 150
PMP-1 5.55555555555556 150
PMP-1 11.1111111111111 150
PMP-1 16.6666666666667 150
PMP-1 22.2222222222222 149
PMP-1 27.7777777777778 148.5
PMP-1 33.3333333333333 147.5
PMP-1 38.8888888888889 145
PMP-1 44.4444444444444 142
PMP-1 50 137
PMP-1 55.5555555555556 128
PMP-1 61.1111111111111 120
PMP-1 63.8888888888889 116
;EFFICIENCY:
PMP-1E 44 73
;PUMP:
PMP-2 0 150
PMP-2 5.55555555555556 150
PMP-2 11.1111111111111 150
PMP-2 16.6666666666667 150
PMP-2 22.2222222222222 149
PMP-2 27.7777777777778 148.5
PMP-2 33.3333333333333 147.5
PMP-2 38.8888888888889 145
PMP-2 44.4444444444444 142
PMP-2 50 137
PMP-2 55.5555555555556 128
PMP-2 61.1111111111111 120
PMP-2 63.8888888888889 116
;EFFICIENCY:
PMP-2E 44 73

[JUNCTIONS]
J-33 76.028 0 
J-32 79.013 0 
J-31 70.192 0 
J-30 72.28 0 
J-29 74.644 0 
J-28 71.972 0 
J-27 73 0 
J-26 65.224 0 
J-25 67.322 0 
J-24 70.305 0 
J-23 58.588 0 
J-21 99.5 0 
J-20 105.135 0 
J-19 89.1 0 
J-18 84.3 0 
J-17 71.8 0 
J-16 71 0 
J-15 68 0 
J-14 71.75 0 
J-13 73.55 0 
J-9 76.6 0 
J-8 73.534 0 
J-7 70.7 0 
J-6 70.5 0 
J-5 68.8 0 
J-4 68.5 0 
J-3 67.8 0 
J-2 85.26 0 
J-1 71.8 0 
J-59 80.83 0 
J-58 36.5854033375421 0 
J-57 64.885 0 
J-56 136.55 0 
J-55 121.7 0 
J-54 106.14 0 
J-53 95.8 0 
J-52 95.135 0 
J-51 81 0 
J-50 73.5 0 
J-49 81 0 
J-48 78.1 0 
J-47 65.5 0 
J-46 94.448 0 
J-44 60 0 
J-43 121.145 0 
J-41 99.639 0 
J-40 91.563 0 
J-39 88.633 0 
J-60 64.9370160341193 0 
J-37 94.496 0 
J-36 90.535 0 
J-34 76.5 0 
99-A 125 0 
99-B 125 0 
97-A 60 0 
97-B 60 0 
98-A 60 0 
98-B 60 0 

[RESERVOIRS]
FalajAlShamTower 152.3 
SunabReservoir 151.8 
R-2 65 

[EMITTERS]

[PUMPS]
PMP-1 97-A 97-B HEAD PMP-1 SPEED 1  
PMP-2 98-A 98-B HEAD PMP-2 SPEED 1  

[VALVES]
FCV-1 99-A 99-B 300 FCV 75 0 

[PIPES]
P-99 J-60 J-33 78.4744523504918 400 130 2 
P-95 J-32 J-60 488.844020811034 400 130 2 
P-93 J-24 J-32 9.91911961186551 400 130 2 
P-92 J-31 J-24 15.1571257929247 300 130 2 
P-91 J-30 J-31 119.52900629389 300 130 2 
P-89 J-1 J-30 10.7703232525367 300 130 2 
P-88 J-59 J-24 262.498961113286 300 130 2 
P-87 J-29 J-59 82.8905577952409 300 130 2 
P-85 J-28 J-29 150.947491845076 300 130 2 
P-83 J-27 J-28 49.1084513118727 300 130 2 
P-81 J-26 J-27 256.23687997613 300 130 2 
P-79 J-25 J-26 173.475574194686 300 130 2 
P-77 J-58 J-25 126.851646580281 300 130 2 
P-75 J-57 J-58 852.418368405386 300 130 2 
P-73 J-23 J-57 902.622424236472 300 130 2 
P-68 J-23 J-47 957.86003345541 300 130 2 
P-65 R-2 97-A 11.5148654403059 200 130 2 
P-64 J-21 J-54 69.7502977088485 150 130 2 
P-63 J-20 J-21 54.9161653069843 150 130 2 
P-61 J-19 J-20 973.859288740462 150 130 2 
P-59 J-53 J-19 65.6397924013371 150 130 2 
P-58 J-18 J-53 35.0146837924037 150 130 2 
P-57 J-52 J-18 151.066807444795 150 130 2 
P-56 J-17 J-1 15.3059062084655 300 130 2 
P-55 J-16 J-17 188.075615700936 300 130 2 
P-53 J-15 J-16 115.17996397385 300 130 2 
P-51 J-50 J-15 85.5584780360949 300 130 2 
P-50 J-14 J-50 35.5832916821501 300 130 2 
P-49 J-49 J-14 98.7635359564525 300 130 2 
P-48 J-13 J-49 50.6203760560069 300 130 2 
P-47 J-48 J-13 29.3305530377094 300 130 2 
P-46 J-9 J-48 57.5656080063781 300 130 2 
P-45 J-8 J-9 102.651254706651 300 130 2 
P-43 J-7 J-8 228.177528345428 300 130 2 
P-41 J-6 J-7 52.1044656638134 300 130 2 
P-39 J-5 J-6 128.62544711188 300 130 2 
P-37 J-4 J-5 78.0449794278048 300 130 2 
P-35 J-3 J-4 49.9654997791509 300 130 2 
P-33 J-47 J-3 270.995217391015 300 130 2 
P-32 J-56 SunabReservoir 94.7555552307662 150 130 2 
P-31 J-55 J-56 300.352072412247 150 130 2 
P-27 J-54 J-55 1153.82149288827 150 130 2 
P-19 J-2 J-52 572.381025837548 150 130 2 
P-17 J-51 J-2 139.242572589695 150 130 2 
P-13 J-1 J-51 327.539685931831 150 130 2 
P-123 99-B FalajAlShamTower 5.85029355294468 400 130 2 
P-122 J-43 99-A 37.5495966330354 400 130 2 
P-121 98-B J-44 11.5777631756082 200 130 2 
P-120 R-2 98-A 14.3840560255334 200 130 2 
P-118 J-44 J-23 36.5250020633647 300 130 2 
P-117 97-B J-44 10.9136194584157 200 130 2 
P-115 J-41 J-43 100.691897803205 400 130 2 
P-113 J-40 J-41 986.896540297584 400 130 2 
P-111 J-39 J-40 158.070683775426 400 130 2 
P-109 J-37 J-39 158.974516193987 400 130 2 
P-107 J-46 J-37 100.742352212734 400 130 2 
P-105 J-36 J-46 349.93497307418 400 130 2 
P-103 J-34 J-36 176.175625035964 400 130 2 
P-101 J-33 J-34 96.973235721716 400 130 2 

[STATUS]
FCV-1 OPEN 

[COORDINATES]
J-33 637058.408772716 2600737.93135524  
J-32 637310.28026895 2601202.91373651  
J-31 637300.369076213 2601223.99468615  
J-30 637291.403299295 2601333.83220297  
J-29 637153.849073497 2601438.74137603  
J-28 637222.254001942 2601573.29958298  
J-27 637244.278874692 2601617.19200796  
J-26 637359.437495068 2601846.09336404  
J-25 637438.117419953 2602000.70010471  
J-24 637302.431214258 2601208.97849325  
J-23 637884.974470937 2603449.33374674  
J-21 637267.67068974 2599267.58127166  
J-20 637260.874443291 2599321.96894181  
J-19 637623.290463518 2600173.7469962  
J-18 637692.980995585 2600244.02453046  
J-17 637317.472182366 2601334.29065568  
J-16 637395.972663533 2601485.73623717  
J-15 637394.792759636 2601595.46729962  
J-14 637443.162674092 2601705.5332827  
J-13 637507.669436042 2601840.27166098  
J-9 637545.517370676 2601918.49224928  
J-8 637550.304339113 2602019.40205522  
J-7 637513.302552894 2602244.55918292  
J-6 637504.876465862 2602295.97782156  
J-5 637485.782474393 2602423.17618131  
J-4 637476.732611501 2602500.69468746  
J-3 637470.715593251 2602550.29656907  
J-2 637409.510720247 2600880.57517896  
J-1 637302.166411653 2601334.22625288  
J-59 637105.807319812 2601371.53601654  
J-58 637501.737838095 2602109.09394274  
J-57 637482.744272821 2602949.95584857  
J-56 637082.30502245 2597875.77047469  
J-55 637271.949500983 2598076.95736309  
J-54 637277.162693015 2599198.47985413  
J-53 637675.241289362 2600213.854022  
J-52 637677.320507406 2600384.10976046  
J-51 637376.247094751 2601015.78201811  
J-50 637428.286676971 2601673.2087509  
J-49 637485.81735624 2601794.61085634  
J-48 637520.498652209 2601866.6476454  
J-47 637478.969722224 2602819.79429323  
J-46 636623.975532131 2600300.94657248  
J-44 637915.033061727 2603468.54202426  
J-43 636937.669193941 2599524.11447212  
J-41 636894.840724189 2599612.80575665  
J-40 636520.303921455 2599962.37960175  
J-39 636611.392502326 2600084.14568395  
J-60 637097.268285359 2600805.83674494  
J-37 636579.579343496 2600231.3583602  
J-36 636871.952001213 2600546.16993246  
J-34 637005.25164401 2600659.95937269  
FalajAlShamTower 636929.063453992 2599481.83527743  
SunabReservoir 637076.431109637 2597781.21468449  
R-2 637936.405920717 2603475.34186086  
99-A 636930.854407468 2599487.40469574  
99-B 636930.854407468 2599487.40469574  
97-A 637925.431887205 2603471.8543525  
97-B 637925.431887205 2603471.8543525  
98-A 637923.313951805 2603476.63346787  
98-B 637923.313951805 2603476.63346787  

[VERTICES]
P-99 637095.73765338 2600799.89794743
P-95 637341.036047882 2601178.74997133
P-95 637311.139249631 2601152.04088011
P-95 637112.061193626 2600860.39106716
P-91 637291.031782824 2601333.90706143
P-91 637285.997526196 2601333.43509987
P-91 637282.536474764 2601332.80581779
P-91 637291.975705942 2601298.66726503
P-91 637292.133026462 2601294.26229048
P-88 637101.142193196 2601366.21424134
P-87 637146.151954903 2601423.22660617
P-77 637484.944182086 2602093.45008909
P-75 637442.307982032 2602725.37425004
P-75 637443.480111243 2602653.87436816
P-75 637510.731024731 2602118.06480252
P-73 637904.444828168 2603429.34065711
P-73 637912.900806099 2603427.76745192
P-73 637911.299946905 2603337.55089377
P-73 637815.27912193 2603337.93497707
P-73 637814.89503863 2603350.60972597
P-73 637606.721890084 2603350.99380927
P-73 637555.254727897 2603350.99380927
P-68 637868.873593779 2603434.25056852
P-68 637848.841563018 2603435.82170819
P-68 637822.328581128 2603491.00798901
P-68 637708.61734769 2603496.31058539
P-68 637586.264846081 2603383.58131425
P-68 637570.160664488 2603328.59142588
P-68 637508.167006791 2603006.51335593
P-63 637260.973124392 2599309.78812784
P-61 637607.728558829 2600160.18281605
P-61 637503.395065282 2600077.32974765
P-61 637442.406001039 2600015.57352536
P-61 637396.376518592 2599960.33814643
P-61 637362.237985776 2599901.65055631
P-61 637320.811451574 2599804.60506415
P-61 637309.687659982 2599770.85011035
P-61 637270.562599902 2599524.97595828
P-61 637259.822387331 2599359.26982147
P-59 637667.668703333 2600207.8484319
P-59 637648.873331334 2600193.65600815
P-59 637627.776485212 2600177.54568929
P-58 637677.923519561 2600217.71966911
P-57 637689.047311153 2600366.93190805
P-57 637703.239734908 2600345.06790388
P-57 637705.92478805 2600319.36810952
P-57 637707.459104132 2600294.81905221
P-57 637705.54120903 2600269.88641589
P-57 637694.800996459 2600247.25525368
P-55 637346.046438885 2601346.21764535
P-55 637346.046438885 2601334.90543975
P-53 637412.697267926 2601530.3339576
P-51 637393.887079098 2601600.61492743
P-45 637550.120962147 2602016.99935176
P-45 637552.850702245 2601933.55959924
P-43 637523.749904495 2602180.02043542
P-39 637488.988055771 2602399.97902993
P-33 637467.411735874 2602735.61067278
P-33 637462.616998119 2602675.07710862
P-33 637462.0176559 2602623.53367776
P-32 637078.787819139 2597806.1958052
P-31 637086.828249133 2597953.45271172
P-27 637278.23418031 2599192.4129476
P-27 637351.881352226 2598901.66005014
P-27 637356.48430047 2598887.08404736
P-27 637367.608092062 2598863.68572712
P-27 637370.676724225 2598847.95898728
P-27 637369.142408143 2598813.05329643
P-27 637372.594619327 2598788.88781814
P-27 637378.348304633 2598747.46128394
P-27 637297.41313133 2598093.45905416
P-19 637420.541996876 2600836.43262901
P-19 637441.638842998 2600745.9079802
P-19 637470.407269528 2600677.24733555
P-19 637565.918445606 2600523.81572739
P-19 637580.494448381 2600502.71888127
P-19 637628.44182593 2600443.64771212
P-19 637674.471308378 2600387.64517515
P-17 637377.964725613 2601007.89245113
P-17 637396.376518592 2600934.62885823
P-13 637302.269087478 2601331.96827445
P-13 637305.833119095 2601299.96132962
P-13 637307.551553106 2601287.68680096
P-13 637327.249716688 2601191.97493634
P-13 637344.976929859 2601127.56910549
P-13 637367.224513041 2601055.83982868
P-122 636938.09232582 2599523.42762281
P-120 637930.262989733 2603478.86993985
P-118 637901.278349422 2603464.29861466
P-115 636911.812247655 2599593.72355963
P-115 636934.702383263 2599546.28748995
P-115 636936.117406132 2599528.71990236
P-113 636506.521733162 2599872.73988499
P-113 636512.996111924 2599863.79502603
P-113 636538.101479171 2599858.98331627
P-113 636482.24005774 2599531.31977702
P-113 636487.994024281 2599522.58846458
P-113 636622.725362467 2599499.94421308
P-113 636666.597717281 2599453.00051336
P-113 636868.401616767 2599642.00129409
P-111 636611.683171752 2600073.04775832
P-111 636531.860120986 2599997.40220673
P-111 636521.232115147 2599968.72825853
P-109 636608.870061645 2600200.66918683
P-107 636565.360625328 2600245.67894853
P-105 636825.180975108 2600504.52468694
P-105 636804.594110233 2600471.64715647
P-103 636997.796411906 2600658.26723059
P-101 637016.040368651 2600663.54837596

[OPTIONS]
UNITS LPS 
TRIALS 50 
ACCURACY 0.001 
EMITTER EXPONENT 0.5 
DAMPLIMIT 0 
MAXCHECK 10 
CHECKFREQ 3 
SPECIFIC GRAVITY 0.998 
VISCOSITY 0.982157860636364 
HEADLOSS H-W 
QUALITY NONE 

[TIMES]
REPORT START 0  
PATTERN TIMESTEP 1  
QUALITY TIMESTEP 0  

[ENERGY]
PUMP PMP-1 EFFIC PMP-1E 
PUMP PMP-2 EFFIC PMP-2E 

