[TITLE]


[JUNCTIONS]
;ID              	Elev        	Demand      	Pattern         
 1               	712         	.045        	                	;
 2               	720         	0           	                	;
 3               	710         	.045        	                	;
 4               	720         	.045        	                	;
 5               	720         	0           	                	;
 6               	734         	0           	                	;
 7               	732         	0           	                	;
 8               	744         	.03375      	                	;
 9               	726         	0           	                	;
 10              	724         	.03375      	                	;
 11              	726         	0           	                	;
 12              	726         	.03375      	                	;
 13              	724         	.03375      	                	;
 14              	736         	0           	                	;
 15              	744         	0           	                	;
 16              	754         	0           	                	;
 17              	758         	.0185       	                	;
 18              	750         	.0185       	                	;
 19              	770         	.0185       	                	;
 20              	770         	0           	                	;
 21              	766         	.0185       	                	;
 23              	763         	0           	                	;
 24              	785         	.012333333  	                	;
 25              	766         	0           	                	;
 26              	776         	.012333333  	                	;
 27              	776         	.012333333  	                	;
 28              	784         	0           	                	;
 29              	776         	.012333333  	                	;
 30              	792         	.012333333  	                	;
 31              	784         	0           	                	;
 32              	798         	.012333333  	                	;
 33              	784         	0           	                	;
 34              	782         	.012333333  	                	;
 35              	774         	.012333333  	                	;
 36              	786         	0           	                	;
 37              	788         	.012333333  	                	;
 38              	800         	0           	                	;
 39              	810         	.012333333  	                	;
 40              	800         	.012333333  	                	;
 41              	828         	0           	                	;
 42              	836         	.016444444  	                	;
 43              	838         	0           	                	;
 44              	844         	.016444444  	                	;
 45              	838         	.016444444  	                	;
 46              	842         	.016444444  	                	;
 47              	842         	0           	                	;
 48              	842         	.016444444  	                	;
 49              	836         	0           	                	;
 50              	822         	.016444444  	                	;
 51              	836         	0           	                	;
 52              	840         	.016444444  	                	;
 53              	836         	0           	                	;
 54              	824         	.016444444  	                	;
 55              	836         	0           	                	;
 56              	836         	.016444444  	                	;
 57              	840         	0           	                	;
 58              	850         	0           	                	;
 59              	852         	.046986301  	                	;
 60              	834         	.046986301  	                	;
 61              	850         	0           	                	;
 62              	850         	0           	                	;
 63              	852         	.046986301  	                	;
 64              	850         	0           	                	;
 65              	856         	.046986301  	                	;
 66              	850         	0           	                	;
 67              	854         	0           	                	;
 68              	856         	.046986301  	                	;
 69              	856         	.046986301  	                	;
 70              	850         	0           	                	;
 71              	854         	.046986301  	                	;
 72              	852         	.046986301  	                	;
 73              	850         	0           	                	;
 74              	860         	.046986301  	                	;
 75              	856         	.046986301  	                	;
 76              	852         	0           	                	;
 77              	852         	.046986301  	                	;
 78              	852         	.046986301  	                	;
 79              	840         	0           	                	;
 80              	850         	.046986301  	                	;
 81              	834         	.046986301  	                	;
 82              	832         	0           	                	;
 83              	834         	.046986301  	                	;
 84              	810         	.046986301  	                	;
 85              	844         	0           	                	;
 86              	856         	.046986301  	                	;
 87              	850         	0           	                	;
 88              	860         	.046986301  	                	;
 89              	850         	0           	                	;
 90              	836         	.046986301  	                	;
 91              	844         	.046986301  	                	;
 92              	844         	0           	                	;
 93              	852         	.046986301  	                	;
 94              	852         	0           	                	;
 95              	852         	.046986301  	                	;
 96              	844         	.046986301  	                	;
 97              	844         	0           	                	;
 98              	842         	0           	                	;
 99              	840         	.046986301  	                	;
 100             	852         	0           	                	;
 101             	849         	.046986301  	                	;
 102             	824         	0           	                	;
 103             	834         	.046986301  	                	;
 104             	834         	.046986301  	                	;
 105             	816         	.046986301  	                	;
 106             	798         	.046986301  	                	;
 107             	822         	0           	                	;
 108             	828         	.046986301  	                	;
 109             	830         	.046986301  	                	;
 110             	830         	.046986301  	                	;
 111             	834         	0           	                	;
 112             	854         	.046986301  	                	;
 113             	854         	.046986301  	                	;
 114             	842         	0           	                	;
 115             	850         	.046986301  	                	;
 116             	828         	.046986301  	                	;
 117             	843         	0           	                	;
 118             	842         	.046986301  	                	;
 119             	848         	0           	                	;
 120             	850         	.046986301  	                	;
 121             	830         	.046986301  	                	;
 122             	826         	0           	                	;
 123             	830         	.046986301  	                	;
 124             	820         	0           	                	;
 125             	824         	0           	                	;
 126             	832         	.046986301  	                	;
 127             	838         	.046986301  	                	;
 128             	830         	.046986301  	                	;
 129             	828         	0           	                	;
 130             	832         	.046986301  	                	;
 131             	864         	0           	                	;
 132             	840         	.046986301  	                	;
 133             	862         	0           	                	;
 134             	860         	.046986301  	                	;
 135             	840         	.046986301  	                	;
 136             	812         	0           	                	;
 137             	808         	.046986301  	                	;
 138             	816         	.046986301  	                	;
 139             	816         	.046986301  	                	;
 140             	818         	0           	                	;
 141             	818         	.046986301  	                	;
 142             	820         	0           	                	;
 143             	824         	0           	                	;
 144             	824         	.046986301  	                	;
 145             	834         	0           	                	;
 146             	834         	.046986301  	                	;
 147             	836         	0           	                	;
 148             	840         	.046986301  	                	;
 149             	846         	0           	                	;
 150             	850         	.046986301  	                	;
 151             	840         	0           	                	;
 152             	856         	.046986301  	                	;
 153             	846         	0           	                	;
 154             	859         	.046986301  	                	;
 155             	850         	0           	                	;
 156             	858         	.046986301  	                	;
 157             	850         	.046986301  	                	;
 158             	859         	.046986301  	                	;
 159             	844         	0           	                	;
 160             	848         	.046986301  	                	;
 161             	844         	0           	                	;
 162             	844         	.046986301  	                	;
 163             	844         	.046986301  	                	;
 164             	818         	0           	                	;
 165             	802         	0           	                	;
 166             	795         	.046986301  	                	;
 167             	802         	.046986301  	                	;
 168             	808         	.046986301  	                	;
 169             	790         	.046986301  	                	;
 170             	796         	0           	                	;
 171             	822         	.046986301  	                	;
 172             	810         	0           	                	;
 173             	830         	.046986301  	                	;
 174             	808         	.046986301  	                	;
 175             	818         	.046986301  	                	;
 176             	812         	.046986301  	                	;
 177             	814         	.046986301  	                	;
 178             	812         	0           	                	;
 179             	804         	0           	                	;
 180             	826         	.07         	                	;
 181             	810         	0           	                	;
 182             	820         	.07         	                	;
 183             	796         	.07         	                	;
 184             	798         	.07         	                	;
 185             	798         	0           	                	;
 186             	818         	.07         	                	;
 187             	812         	.07         	                	;
 188             	834         	0           	                	;
 189             	844         	.07         	                	;
 190             	826         	.07         	                	;
 191             	814         	.07         	                	;
 192             	784         	0           	                	;
 193             	778         	0           	                	;
 194             	758         	.054615384  	                	;
 195             	784         	.054615384  	                	;
 196             	768         	0           	                	;
 197             	778         	.054615384  	                	;
 198             	768         	.054615384  	                	;
 199             	768         	.054615384  	                	;
 200             	768         	0           	                	;
 201             	760         	0           	                	;
 202             	730         	.054615384  	                	;
 203             	760         	.054615384  	                	;
 204             	730         	.054615384  	                	;
 205             	746         	.054615384  	                	;
 206             	724         	.054615384  	                	;
 207             	736         	0           	                	;
 208             	742         	.054615384  	                	;
 209             	742         	0           	                	;
 210             	748         	.054615384  	                	;
 212             	804         	0           	                	;
 213             	780         	.054615384  	                	;
 217             	823         	0           	                	;
 218             	762         	0           	                	;
 219             	734         	0           	                	;
 220             	818         	0           	                	;
 222             	812         	0           	                	;
 224             	804         	0           	                	;
 225             	760         	0           	                	;
 227             	868.5       	0           	                	;
 228             	868.5       	0           	                	;
 211             	816         	00          	                	;
 22              	763         	0           	                	;
 215             	807         	0           	                	;
 221             	807         	0           	                	;

[RESERVOIRS]
;ID              	Head        	Pattern         
 216             	914.5       	                	;

[TANKS]
;ID              	Elevation   	InitLevel   	MinLevel    	MaxLevel    	Diameter    	MinVol      	VolCurve
 214             	883.5       	1           	.57         	5           	10.3        	0           	                	;

[PIPES]
;ID              	Node1           	Node2           	Length      	Diameter    	Roughness   	MinorLoss   	Status
 2               	131             	133             	89.74       	50          	130         	0           	Open  	;
 3               	133             	134             	90.03       	50          	130         	0           	Open  	;
 4               	133             	135             	247.30      	50          	130         	0           	Open  	;
 5               	131             	132             	411.32      	50          	130         	0           	Open  	;
 6               	131             	93              	194.54      	200         	130         	0           	Open  	;
 7               	93              	94              	133.65      	200         	130         	0           	Open  	;
 8               	94              	89              	122.64      	200         	130         	0           	Open  	;
 9               	94              	95              	63.63       	50          	130         	0           	Open  	;
 10              	93              	92              	262.86      	150         	130         	0           	Open  	;
 11              	89              	87              	34.07       	150         	130         	0           	Open  	;
 12              	87              	88              	60.42       	50          	130         	0           	Open  	;
 13              	87              	85              	89.71       	150         	130         	0           	Open  	;
 14              	85              	86              	112.87      	50          	130         	0           	Open  	;
 15              	85              	79              	132.31      	150         	130         	0           	Open  	;
 16              	79              	61              	144.03      	150         	130         	0           	Open  	;
 17              	79              	80              	88.73       	50          	130         	0           	Open  	;
 18              	61              	62              	46.55       	100         	130         	0           	Open  	;
 19              	62              	64              	64.51       	75          	130         	0           	Open  	;
 20              	64              	65              	171.49      	50          	130         	0           	Open  	;
 21              	66              	67              	94.67       	50          	130         	0           	Open  	;
 22              	67              	68              	97.64       	50          	130         	0           	Open  	;
 23              	67              	69              	79.86       	50          	130         	0           	Open  	;
 24              	64              	66              	47.51       	75          	130         	0           	Open  	;
 25              	66              	70              	38.93       	75          	130         	0           	Open  	;
 26              	70              	73              	41.80       	75          	130         	0           	Open  	;
 27              	73              	76              	181.54      	50          	130         	0           	Open  	;
 28              	76              	78              	113.82      	50          	130         	0           	Open  	;
 29              	76              	77              	110.21      	50          	130         	0           	Open  	;
 30              	73              	74              	231.42      	50          	130         	0           	Open  	;
 31              	66              	72              	65.97       	50          	130         	0           	Open  	;
 32              	62              	63              	129.21      	50          	130         	0           	Open  	;
 33              	61              	58              	56.79       	100         	130         	0           	Open  	;
 34              	58              	60              	55.35       	50          	130         	0           	Open  	;
 35              	58              	59              	92.06       	50          	130         	0           	Open  	;
 36              	58              	57              	146.94      	100         	130         	0           	Open  	;
 37              	57              	55              	246.42      	100         	130         	0           	Open  	;
 38              	55              	56              	81.30       	50          	130         	0           	Open  	;
 39              	55              	53              	33.57       	100         	130         	0           	Open  	;
 40              	53              	51              	63.00       	100         	130         	0           	Open  	;
 41              	53              	54              	114.19      	50          	130         	0           	Open  	;
 42              	51              	52              	95.77       	50          	130         	0           	Open  	;
 43              	51              	49              	59.78       	100         	130         	0           	Open  	;
 44              	49              	50              	128.49      	50          	130         	0           	Open  	;
 45              	49              	45              	110.39      	100         	130         	0           	Open  	;
 46              	45              	43              	41.03       	100         	130         	0           	Open  	;
 47              	45              	47              	123.90      	50          	130         	0           	Open  	;
 48              	47              	46              	53.47       	50          	130         	0           	Open  	;
 49              	47              	48              	136.61      	50          	130         	0           	Open  	;
 50              	43              	44              	66.16       	50          	130         	0           	Open  	;
 51              	43              	41              	123.06      	100         	130         	0           	Open  	;
 52              	41              	42              	156.71      	50          	130         	0           	Open  	;
 54              	38              	40              	158.37      	50          	130         	0           	Open  	;
 55              	38              	39              	128.69      	50          	130         	0           	Open  	;
 56              	38              	36              	165.00      	75          	130         	0           	Open  	;
 57              	36              	37              	34.54       	50          	130         	0           	Open  	;
 58              	36              	33              	96.46       	75          	130         	0           	Open  	;
 59              	33              	34              	65.73       	50          	130         	0           	Open  	;
 60              	33              	35              	108.99      	50          	130         	0           	Open  	;
 61              	33              	31              	367.74      	75          	130         	0           	Open  	;
 62              	31              	32              	132.61      	75          	130         	0           	Open  	;
 63              	31              	29              	69.42       	75          	130         	0           	Open  	;
 64              	29              	25              	161.91      	75          	130         	0           	Open  	;
 65              	25              	23              	69.02       	75          	130         	0           	Open  	;
 67              	23              	24              	220.44      	50          	130         	0           	Open  	;
 69              	16              	17              	166.59      	50          	130         	0           	Open  	;
 70              	17              	18              	195.74      	50          	130         	0           	Open  	;
 71              	17              	20              	128.07      	50          	130         	0           	Open  	;
 72              	20              	19              	270.27      	50          	130         	0           	Open  	;
 73              	20              	21              	50.41       	50          	130         	0           	Open  	;
 74              	16              	15              	155.55      	75          	130         	0           	Open  	;
 75              	15              	14              	206.91      	75          	130         	0           	Open  	;
 76              	14              	9               	297.26      	75          	130         	0           	Open  	;
 77              	9               	11              	46.58       	50          	130         	0           	Open  	;
 78              	11              	10              	50.54       	50          	130         	0           	Open  	;
 79              	11              	12              	90.19       	50          	130         	0           	Open  	;
 80              	9               	13              	84.70       	50          	130         	0           	Open  	;
 81              	9               	7               	38.77       	50          	130         	0           	Open  	;
 82              	7               	8               	159.79      	50          	130         	0           	Open  	;
 83              	7               	6               	290.67      	50          	130         	0           	Open  	;
 84              	219             	5               	251.47      	50          	130         	0           	Open  	;
 85              	5               	2               	38.59       	50          	130         	0           	Open  	;
 86              	2               	1               	107.25      	50          	130         	0           	Open  	;
 87              	2               	3               	109.61      	50          	130         	0           	Open  	;
 88              	5               	4               	59.89       	50          	130         	0           	Open  	;
 89              	29              	28              	107.28      	50          	130         	0           	Open  	;
 90              	28              	26              	76.29       	50          	130         	0           	Open  	;
 91              	26              	25              	113.22      	50          	130         	0           	Open  	;
 92              	28              	30              	98.34       	50          	130         	0           	Open  	;
 93              	26              	27              	133.34      	50          	130         	0           	Open  	;
 94              	92              	91              	32.77       	100         	130         	0           	Open  	;
 95              	91              	81              	485.25      	50          	130         	0           	Open  	;
 96              	81              	82              	79.04       	50          	130         	0           	Open  	;
 97              	82              	83              	112.35      	50          	130         	0           	Open  	;
 98              	82              	84              	209.61      	50          	130         	0           	Open  	;
 99              	92              	100             	120.84      	100         	130         	0           	Open  	;
 100             	100             	99              	158.59      	100         	130         	0           	Open  	;
 101             	99              	98              	101.31      	50          	130         	0           	Open  	;
 102             	98              	104             	162.93      	50          	130         	0           	Open  	;
 103             	91              	96              	95.86       	100         	130         	0           	Open  	;
 104             	96              	97              	96.47       	100         	130         	0           	Open  	;
 105             	98              	97              	231.67      	75          	130         	0           	Open  	;
 106             	97              	102             	351.44      	100         	130         	0           	Open  	;
 107             	102             	105             	83.62       	100         	130         	0           	Open  	;
 108             	102             	103             	113.87      	50          	130         	0           	Open  	;
 110             	105             	107             	114.01      	75          	130         	0           	Open  	;
 111             	107             	109             	83.29       	50          	130         	0           	Open  	;
 112             	107             	108             	27.90       	75          	130         	0           	Open  	;
 113             	108             	110             	300.01      	50          	130         	0           	Open  	;
 114             	108             	111             	66.24       	75          	130         	0           	Open  	;
 115             	111             	121             	97.89       	50          	130         	0           	Open  	;
 116             	111             	112             	355.29      	50          	130         	0           	Open  	;
 117             	112             	113             	258.19      	50          	130         	0           	Open  	;
 118             	111             	114             	313.81      	75          	130         	0           	Open  	;
 119             	114             	119             	67.21       	50          	130         	0           	Open  	;
 120             	119             	120             	65.71       	50          	130         	0           	Open  	;
 121             	119             	115             	249.82      	50          	130         	0           	Open  	;
 122             	114             	117             	96.29       	50          	130         	0           	Open  	;
 123             	117             	116             	223.28      	50          	130         	0           	Open  	;
 124             	117             	118             	74.97       	50          	130         	0           	Open  	;
 125             	99              	164             	380.90      	75          	130         	0           	Open  	;
 126             	220             	165             	182.12      	75          	130         	0           	Open  	;
 127             	164             	171             	157.32      	50          	130         	0           	Open  	;
 128             	165             	168             	50.97       	50          	130         	0           	Open  	;
 129             	165             	167             	77.70       	50          	130         	0           	Open  	;
 130             	165             	170             	38.29       	50          	130         	0           	Open  	;
 131             	170             	169             	69.70       	50          	130         	0           	Open  	;
 132             	170             	166             	235.56      	50          	130         	0           	Open  	;
 133             	100             	101             	83.19       	50          	130         	0           	Open  	;
 134             	99              	159             	85.30       	100         	130         	0           	Open  	;
 135             	159             	160             	75.80       	50          	130         	0           	Open  	;
 136             	159             	157             	55.96       	100         	130         	0           	Open  	;
 137             	157             	158             	137.41      	50          	130         	0           	Open  	;