[TITLE]
Scenario: TANK FILLING 
Date: 06/07/2010 11:23:31 ุต 

[JUNCTIONS]
26 -222.13 0 
28 -221.37 0 
30 -220.75 0 
32 -219.23 0 

[RESERVOIRS]
24 -115 

[TANKS]
42 -228 0 0 5 286.758118043058 0 

[DEMANDS]

[EMITTERS]

[PIPES]
27 24 26 12000 900 130 0 
29 26 28 5000 900 130 0 
31 28 30 4000 800 130 0 
33 30 32 5000 700 130 0 
47 32 42 16.9321543810655 700 130 0 CV 

[COORDINATES]
26 -16.9817142857822 15.1855714286322  
28 3.48342857144251 14.9678571429171  
30 18.6145714286459 15.2944285714898  
32 31.0242857144098 15.4032857143474  
24 -36.902571428719 15.4032857143474  
42 30.3779464286929 -1.49678571429157  

[VERTICES]
47 31.2217498501249 11.9718527571908

[OPTIONS]
UNITS LPS 
TRIALS 40 
ACCURACY 0.001 
EMITTER 0.5 
SPECIFIC GRAVITY 0.998 
HEADLOSS H-W 
QUALITY NONE 

[TIMES]
REPORT START 0  
QUALITY TIMESTEP 0  

