[TITLE]


[JUNCTIONS]
;ID              	Elev        	Demand      	Pattern         
 2               	869         	0           	1               	;450
 3               	886         	0           	1               	;1350
 6               	849         	0           	1               	;2050
 7               	853.7       	0           	1               	;2250
 8               	833         	0           	                	;2550
 9               	845.7       	0           	1               	;3000
 10              	853.5       	0           	1               	;3100
 11              	794.8       	0           	1               	;4000
 12              	795.7       	0           	1               	;4500
 13              	800         	0           	1               	;5100
 14              	785.8       	0           	                	;5450
 15              	802         	0           	1               	;5900
 16              	798.58      	0           	1               	;6150
 17              	795.5       	0           	1               	;6350
 4               	875         	0           	1               	;700
 18              	781.95      	0           	1               	;6650
 19              	804         	0           	1               	;
 20              	835         	0           	1               	;
 21              	852         	0           	1               	;
 22              	850         	4.50375     	1               	;SURRA R
 23              	795         	27.11       	1               	;KURZA R
 24              	893.21      	0           	1               	;
 26              	883         	5.41        	1               	;
 28              	893.21      	0           	1               	;
 29              	875         	0           	1               	;
 30              	845.7       	0           	1               	;
 31              	798.58      	0           	1               	;
 5               	834         	0.04925     	                	;
 25              	836         	0           	                	;
 27              	840         	0.04925     	                	;
 32              	844         	0           	                	;
 33              	844         	0.04925     	                	;
 34              	834         	0.04925     	                	;
 35              	844         	0.04925     	                	;

[RESERVOIRS]
;ID              	Head        	Pattern         
 1               	993         	                	;

[TANKS]
;ID              	Elevation   	InitLevel   	MinLevel    	MaxLevel    	Diameter    	MinVol      	VolCurve

[PIPES]
;ID              	Node1           	Node2           	Length      	Diameter    	Roughness   	MinorLoss   	Status
 3               	2               	4               	263.80      	400         	130         	0           	Open  	;
 4               	4               	3               	644.21      	400         	130         	0           	Open  	;
 5               	3               	29              	175.98      	400         	130         	0           	Open  	;
 7               	6               	7               	201.60      	400         	130         	0           	Open  	;
 8               	7               	8               	309.56      	400         	130         	0           	Open  	;
 9               	8               	9               	443.12      	400         	130         	0           	Open  	;
 11              	10              	11              	920.82      	400         	130         	0           	Open  	;
 12              	11              	12              	515.72      	400         	130         	0           	Open  	;
 13              	12              	13              	614.67      	400         	130         	0           	Open  	;
 14              	13              	14              	351.48      	400         	130         	0           	Open  	;
 15              	14              	15              	454.15      	400         	130         	0           	Open  	;
 16              	15              	16              	250.85      	400         	130         	0           	Open  	;
 18              	17              	18              	317.44      	400         	130         	0           	Open  	;
 19              	18              	23              	116.92      	400         	130         	0           	Open  	;
 20              	16              	19              	138.65      	200         	130         	0           	Open  	;
 21              	19              	20              	312.43      	200         	130         	0           	Open  	;
 22              	20              	22              	98.90       	200         	130         	0           	Open  	;
 23              	9               	21              	287.18      	200         	130         	0           	Open  	;
 24              	21              	26              	213.72      	200         	130         	0           	Open  	;
 27              	29              	6               	528         	400         	130         	0           	Open  	;
 6               	16              	31              	109.22      	400         	130         	0           	Open  	;
 10              	31              	17              	87.37       	400         	130         	0           	Open  	;
 17              	9               	30              	54.53       	400         	130         	0           	Open  	;
 26              	30              	10              	44.80       	400         	130         	0           	Open  	;
 28              	34              	32              	140.07      	75          	130         	0           	Open  	;
 29              	32              	33              	34.39       	50          	130         	0           	Open  	;
 30              	32              	25              	64.53       	50          	130         	0           	Open  	;
 31              	25              	27              	40.44       	50          	130         	0           	Open  	;
 32              	25              	5               	24.08       	50          	130         	0           	Open  	;
 33              	34              	35              	95.17       	50          	130         	0           	Open  	;
 35              	1               	28              	124.61      	400         	130         	0           	Open  	;
 36              	28              	24              	77.21       	400         	130         	0           	Open  	;
 37              	24              	2               	241.62      	400         	130         	0           	Open  	;

[PUMPS]
;ID              	Node1           	Node2           	Parameters

[VALVES]
;ID              	Node1           	Node2           	Diameter    	Type	Setting     	MinorLoss   
 34              	20              	34              	75          	PRV 	60          	0           	;

[TAGS]

[DEMANDS]
;Junction        	Demand      	Pattern         	Category

[STATUS]
;ID              	Status/Setting

[PATTERNS]
;ID              	Multipliers
;
 1               	.288018     	.288018     	1           	1           	1.5         	1.5         

[CURVES]
;ID              	X-Value     	Y-Value

[CONTROLS]

[RULES]

[ENERGY]
 Global Efficiency  	75
 Global Price       	0
 Demand Charge      	0

[EMITTERS]
;Junction        	Coefficient

[QUALITY]
;Node            	InitQual

[SOURCES]
;Node            	Type        	Quality     	Pattern

[REACTIONS]
;Type     	Pipe/Tank       	Coefficient


[REACTIONS]
 Order Bulk            	1
 Order Tank            	1
 Order Wall            	1
 Global Bulk           	0
 Global Wall           	0
 Limiting Potential    	0
 Roughness Correlation 	0

[MIXING]
;Tank            	Model

[TIMES]
 Duration           	6
 Hydraulic Timestep 	1:00
 Quality Timestep   	0:05
 Pattern Timestep   	1:00
 Pattern Start      	0:00
 Report Timestep    	1:00
 Report Start       	0:00
 Start ClockTime    	12 am
 Statistic          	None

[REPORT]
 Status             	No
 Summary            	No
 Page               	0

[OPTIONS]
 Units              	LPS
 Headloss           	H-W
 Specific Gravity   	1
 Viscosity          	1
 Trials             	40
 Accuracy           	0.001
 CHECKFREQ          	2
 MAXCHECK           	10
 DAMPLIMIT          	0
 Unbalanced         	Continue 10
 Pattern            	1
 Demand Multiplier  	3.472
 Emitter Exponent   	.5
 Quality            	None mg/L
 Diffusivity        	1
 Tolerance          	0.01

[COORDINATES]
;Node            	X-Coord         	Y-Coord
 2               	153501.04       	100395.40       
 3               	152714.54       	100426.46       
 6               	152147.78       	100039.75       
 7               	152050.18       	99866.05        
 8               	151983.54       	99591.31        
 9               	151721.46       	99250.15        
 10              	151704.60       	99152.66        
 11              	151469.31       	98337.93        
 12              	151098.39       	98038.25        
 13              	150580.93       	97808.32        
 14              	150257.09       	97685.56        
 15              	149925.60       	97414.96        
 16              	149694.37       	97320.97        
 17              	149581.30       	97176.72        
 4               	153276.00       	100454.00       
 18              	149504.35       	96901.19        
 19              	149561.15       	97291.26        
 20              	149698.15       	97534.86        
 21              	151945.00       	99372.60        
 22              	149792.30       	97553.60        
 23              	149442.90       	96996.87        
 24              	153651.66       	100548.55       
 26              	151967.05       	99168.10        
 28              	153607.85       	100611.34       
 29              	152469.98       	100263.16       
 30              	151712.75       	99196.71        
 31              	149616.36       	97250.47        
 5               	149839.57       	97641.64        
 25              	149835.97       	97665.04        
 27              	149812.57       	97697.44        
 32              	149783.77       	97652.44        
 33              	149763.97       	97679.44        
 34              	149697.36       	97543.63        
 35              	149670.36       	97632.64        
 1               	153520.44       	100698.98       

[VERTICES]
;Link            	X-Coord         	Y-Coord
 3               	153404.95       	100376.79       
 3               	153327.04       	100389.77       
 3               	153288.08       	100415.74       
 4               	153158.22       	100487.17       
 4               	153106.28       	100513.14       
 4               	153073.81       	100545.60       
 4               	153054.34       	100565.08       
 4               	153021.87       	100571.57       
 4               	152989.41       	100578.07       
 4               	152963.43       	100578.07       
 4               	152950.45       	100558.59       
 4               	152924.48       	100539.11       
 4               	152905.00       	100519.63       
 4               	152859.55       	100493.66       
 4               	152794.62       	100448.21       
 4               	152762.16       	100441.72       
 5               	152664.76       	100402.76       
 5               	152625.81       	100370.29       
 5               	152612.82       	100337.83       
 7               	152112.87       	99974.23        
 7               	152106.38       	99948.26        
 7               	152086.90       	99922.29        
 7               	152080.41       	99902.81        
 8               	152015.48       	99824.89        
 8               	151989.50       	99805.41        
 8               	151983.01       	99740.49        
 8               	151983.01       	99688.54        
 8               	151996.00       	99643.09        
 8               	152002.49       	99617.12        
 9               	151918.08       	99500.25        
 9               	151866.14       	99454.80        
 9               	151840.17       	99428.83        
 9               	151827.18       	99402.86        
 9               	151814.20       	99350.91        
 9               	151788.23       	99298.97        
 9               	151755.76       	99285.98        
 11              	151677.85       	99078.21        
 11              	151671.35       	99026.27        
 11              	151677.85       	98967.83        
 11              	151677.85       	98928.88        
 11              	151697.33       	98837.98        
 11              	151697.33       	98805.51        
 11              	151677.85       	98760.06        
 11              	151632.40       	98708.12        
 11              	151535.00       	98604.23        
 11              	151502.54       	98571.77        
 11              	151470.08       	98539.31        
 11              	151463.58       	98500.35        
 11              	151450.60       	98435.42        
 11              	151463.58       	98383.48        
 11              	151476.57       	98376.98        
 12              	151431.12       	98247.13        
 12              	151405.15       	98214.66        
 12              	151346.71       	98214.66        
 12              	151262.30       	98182.20        
 12              	151236.33       	98123.76        
 12              	151164.91       	98071.82        
 13              	150950.65       	97928.98        
 13              	150859.75       	97915.99        
 13              	150827.28       	97890.02        
 13              	150814.30       	97857.55        
 13              	150788.32       	97831.58        
 13              	150723.40       	97857.55        
 13              	150658.47       	97851.06        
 13              	150619.51       	97818.60        
 14              	150522.12       	97766.65        
 14              	150463.68       	97734.19        
 14              	150372.78       	97708.22        
 14              	150320.84       	97695.23        
 15              	150171.50       	97630.30        
 15              	150126.05       	97584.85        
 15              	150100.08       	97506.94        
 15              	150067.62       	97461.49        
 15              	150009.18       	97435.52        
 16              	149827.38       	97383.58        
 16              	149775.44       	97351.11        
 18              	149600.13       	97130.35        
 18              	149603.38       	97094.64        
 18              	149596.88       	97032.96        
 18              	149574.16       	96977.77        
 18              	149554.68       	96938.81        
 18              	149538.45       	96919.34        
 18              	149522.22       	96903.10        
 19              	149489.75       	96938.81        
 19              	149463.78       	96958.29        
 19              	149454.04       	96981.02        
 20              	149655.32       	97321.89        
 20              	149616.36       	97305.66        
 20              	149577.41       	97292.67        
 21              	149538.45       	97305.66        
 21              	149554.68       	97334.88        
 21              	149600.13       	97403.05        
 21              	149648.83       	97490.71        
 21              	149668.31       	97523.17        
 22              	149739.73       	97536.16        
 22              	149762.45       	97536.16        
 22              	149778.68       	97545.90        
 23              	151771.99       	99247.03        
 23              	151827.18       	99247.03        
 23              	151859.65       	99263.26        
 23              	151879.13       	99282.74        
 23              	151892.11       	99295.72        
 23              	151905.10       	99328.19        
 23              	151921.33       	99347.67        
 23              	151931.07       	99370.39        
 24              	151963.53       	99324.94        
 24              	151963.53       	99289.23        
 24              	151963.53       	99256.77        
 24              	151970.03       	99217.81        
 24              	151979.77       	99188.59        
 27              	152369.34       	100211.22       
 27              	152255.71       	100152.78       
 27              	152220.00       	100113.83       
 6               	149660.19       	97300.79        
 6               	149626.10       	97274.82        
 6               	149622.86       	97260.21        
 10              	149595.26       	97237.49        
 10              	149587.14       	97211.51        
 10              	149585.52       	97193.66        
 17              	151719.24       	99217.00        
 26              	151708.69       	99173.17        
 28              	149711.12       	97568.62        
 28              	149731.81       	97594.19        
 28              	149751.70       	97618.94        
 28              	149767.12       	97640.04        
 29              	149780.92       	97662.36        
 29              	149771.58       	97672.10        
 30              	149799.58       	97668.45        
 30              	149807.70       	97676.57        
 30              	149820.28       	97670.88        
 31              	149830.83       	97676.16        
 31              	149822.31       	97688.33        
 32              	149840.16       	97652.22        
 33              	149687.58       	97561.32        
 33              	149679.06       	97586.88        
 33              	149679.06       	97606.36        
 33              	149677.44       	97622.19        
 35              	153546.17       	100669.78       
 35              	153576.20       	100636.50       
 35              	153592.03       	100621.49       
 35              	153596.90       	100616.62       
 36              	153624.49       	100587.80       
 36              	153639.50       	100569.14       
 36              	153645.19       	100560.21       
 36              	153651.68       	100551.69       
 37              	153661.42       	100524.91       
 37              	153660.61       	100508.27       
 37              	153647.21       	100488.79       
 37              	153621.24       	100464.03       
 37              	153593.65       	100445.37       
 37              	153570.11       	100428.73       
 37              	153551.85       	100413.71       
 37              	153533.18       	100407.63       
 37              	153511.27       	100398.29       

[LABELS]
;X-Coord           Y-Coord          Label & Anchor Node
 149424.82        97734.19         "SURRA RESERVOIR"                 
 148833.97        97182.30         "KURZA RESERVOIR"                 
 151996.00        99039.26         "KHRSA RESERVOIR"                 

[BACKDROP]
 DIMENSIONS     	149299.39       	96896.61        	153751.14       	100792.33       
 UNITS          	Meters
 FILE           	S:\CURRENT PROJECTS\669.DVWSP.10\CALCULATIONS\Main Pipe Line\main pipe line N.bmp
 OFFSET         	0.00            	0.00            

[END]
