;Export from InfoWorks 13.5.2.25111 to EPANET 2 file format of:
;	Network: Network 1
;	Control: Control
;	Demand Diagram: Demand Diagram
;
[JUNCTIONS]
;ID              	Elev        	Demand      	Pattern
 DC-1            	8.950000    	0.000000    	
 DC-10           	10.300000   	0.000000    	
 DC-11           	9.800000    	0.000000    	
 DC-12           	9.050000    	0.000000    	
 DC-13           	8.250000    	0.000000    	
 DC-14           	7.350000    	0.000000    	
 DC-15           	7.000000    	0.000000    	
 DC-16           	7.850000    	0.000000    	
 DC-17           	9.200000    	0.000000    	
 DC-18           	8.450000    	0.000000    	
 DC-19           	7.700000    	0.000000    	
 DC-2            	9.200000    	0.000000    	
 DC-20           	7.900000    	0.000000    	
 DC-21           	8.250000    	0.000000    	
 DC-22           	6.830000    	0.000000    	
 DC-23           	6.850000    	0.000000    	
 DC-24           	6.600000    	0.000000    	
 DC-25           	6.470000    	0.000000    	
 DC-26           	5.950000    	0.000000    	
 DC-27           	5.470000    	0.000000    	
 DC-28           	10.250000   	0.000000    	
 DC-29           	11.000000   	0.000000    	
 DC-3            	9.600000    	0.000000    	
 DC-30           	11.750000   	0.000000    	
 DC-31           	12.400000   	0.000000    	
 DC-32           	12.650000   	0.000000    	
 DC-33           	11.800000   	0.000000    	
 DC-34           	11.200000   	0.000000    	
 DC-35           	10.900000   	0.000000    	
 DC-36           	10.400000   	0.000000    	
 DC-37           	9.550000    	0.000000    	
 DC-38           	9.050000    	0.000000    	
 DC-39           	8.850000    	0.000000    	
 DC-4            	10.250000   	0.000000    	
 DC-40           	8.550000    	0.000000    	
 DC-41           	13.200000   	0.000000    	
 DC-42           	13.550000   	0.000000    	
 DC-43           	13.200000   	0.000000    	
 DC-44           	12.800000   	0.000000    	
 DC-45           	12.000000   	0.000000    	
 DC-46           	11.100000   	0.000000    	
 DC-47           	10.250000   	0.000000    	
 DC-48           	9.900000    	0.000000    	
 DC-49           	10.450000   	0.000000    	
 DC-5            	9.700000    	0.000000    	
 DC-50           	9.850000    	0.000000    	
 DC-51           	9.300000    	0.000000    	
 DC-52           	8.900000    	0.000000    	
 DC-53           	8.250000    	0.000000    	
 DC-54           	7.100000    	0.000000    	
 DC-55           	6.450000    	0.000000    	
 DC-56           	6.000000    	0.000000    	
 DC-57           	5.900000    	0.000000    	
 DC-58           	5.500000    	0.000000    	
 DC-59           	5.650000    	0.000000    	
 DC-6            	9.400000    	0.000000    	
 DC-60           	8.900000    	0.000000    	
 DC-61           	10.600000   	0.000000    	
 DC-62           	10.250000   	0.000000    	
 DC-63           	10.100000   	0.000000    	
 DC-64           	10.950000   	0.000000    	
 DC-65           	11.250000   	0.000000    	
 DC-66           	12.450000   	0.000000    	
 DC-67           	11.230000   	0.000000    	
 DC-68           	9.750000    	0.000000    	
 DC-69           	9.900000    	0.000000    	
 DC-7            	11.700000   	0.000000    	
 DC-70           	6.950000    	0.000000    	
 DC-71           	6.650000    	0.000000    	
 DC-72           	7.400000    	0.000000    	
 DC-73           	6.720000    	0.000000    	
 DC-74           	6.930000    	0.000000    	
 DC-75           	9.200000    	0.000000    	
 DC-76           	9.900000    	0.000000    	
 DC-77           	9.100000    	0.000000    	
 DC-78           	8.100000    	0.000000    	
 DC-79           	7.200000    	0.000000    	
 DC-8            	11.100000   	0.000000    	
 DC-80           	9.200000    	0.000000    	
 DC-81           	7.400000    	0.000000    	
 DC-82           	7.100000    	0.000000    	
 DC-83           	7.750000    	0.000000    	
 DC-84           	7.150000    	0.000000    	
 DC-85           	6.550000    	0.000000    	
 DC-9            	10.050000   	0.000000    	
 AV-001          	8.580000    	0.000000    	
 AV-002          	8.770000    	0.000000    	
 AV-003          	8.400000    	0.000000    	
 AV-004          	5.950000    	0.000000    	
 AV-005          	6.050000    	0.000000    	
 AV-006          	8.490000    	0.000000    	
 AV-007          	9.820000    	0.000000    	
 AV-008          	12.530000   	0.000000    	
 AV-009          	9.050000    	0.000000    	
 NODE-1          	6.280000    	0.000000    	
 PS              	4.880000    	0.000000    	
 Tank_Out        	4.880000    	0.000000    	
 TEE-1           	4.980000    	0.000000    	
 TEE-10          	6.010000    	0.000000    	
 TEE-10.1        	6.010000    	0.000000    	
 TEE-11          	5.990000    	0.000000    	
 TEE-12          	5.790000    	0.000000    	
 TEE-13          	5.620000    	0.000000    	
 TEE-14          	5.610000    	0.000000    	
 TEE-15          	6.750000    	0.000000    	
 TEE-15.1        	6.750000    	0.000000    	
 TEE-16          	6.950000    	0.000000    	
 TEE-17          	7.410000    	0.000000    	
 TEE-18          	8.370000    	0.000000    	
 TEE-19          	8.270000    	0.000000    	
 TEE-2           	4.640000    	0.000000    	
 TEE-2.1         	4.640000    	0.000000    	
 TEE-2.2         	4.640000    	0.000000    	
 TEE-2.3         	4.640000    	0.000000    	
 TEE-20          	8.250000    	0.000000    	
 TEE-21          	8.220000    	0.000000    	
 TEE-21.1        	8.220000    	0.000000    	
 TEE-21.2        	8.220000    	0.000000    	
 TEE-21.3        	8.220000    	0.000000    	
 TEE-22          	8.200000    	0.000000    	
 TEE-23          	8.880000    	0.000000    	
 TEE-24          	9.690000    	0.000000    	
 TEE-25          	10.490000   	0.000000    	
 TEE-26          	10.840000   	0.000000    	
 TEE-27          	10.950000   	0.000000    	
 TEE-28          	11.070000   	0.000000    	
 TEE-28.1        	11.070000   	0.000000    	
 TEE-29          	11.680000   	0.000000    	
 TEE-3           	4.580000    	0.000000    	
 TEE-30          	11.970000   	0.000000    	
 TEE-31          	12.350000   	0.000000    	
 TEE-32          	11.810000   	0.000000    	
 TEE-33          	11.370000   	0.000000    	
 TEE-34          	11.230000   	0.000000    	
 TEE-34.1        	11.230000   	0.000000    	
 TEE-35          	10.630000   	0.000000    	
 TEE-36          	9.920000    	0.000000    	
 TEE-37          	9.140000    	0.000000    	
 TEE-38          	8.740000    	0.000000    	
 TEE-39          	9.000000    	0.000000    	
 TEE-4           	4.780000    	0.000000    	
 TEE-40          	8.670000    	0.000000    	
 TEE-41          	8.410000    	0.000000    	
 TEE-42          	8.130000    	0.000000    	
 TEE-43          	8.000000    	0.000000    	
 TEE-43.1        	8.000000    	0.000000    	
 TEE-43.2        	8.000000    	0.000000    	
 TEE-43.3        	8.000000    	0.000000    	
 TEE-44          	7.460000    	0.000000    	
 TEE-45          	6.160000    	0.000000    	
 TEE-46          	5.510000    	0.000000    	
 TEE-47          	5.060000    	0.000000    	
 TEE-48          	4.600000    	0.000000    	
 TEE-49          	7.490000    	0.000000    	
 TEE-5           	5.220000    	0.000000    	
 TEE-50          	7.570000    	0.000000    	
 TEE-51          	9.340000    	0.000000    	
 TEE-52          	9.380000    	0.000000    	
 TEE-53          	10.410000   	0.000000    	
 TEE-54          	10.810000   	0.000000    	
 TEE-55          	9.640000    	0.000000    	
 TEE-56          	9.780000    	0.000000    	
 TEE-57          	9.850000    	0.000000    	
 TEE-57.1        	9.850000    	0.000000    	
 TEE-57.2        	9.850000    	0.000000    	
 TEE-57.3        	9.850000    	0.000000    	
 TEE-58          	10.230000   	0.000000    	
 TEE-59          	10.440000   	0.000000    	
 TEE-6           	5.680000    	0.000000    	
 TEE-60          	10.710000   	0.000000    	
 TEE-61          	7.560000    	0.000000    	
 TEE-62          	7.730000    	0.000000    	
 TEE-63          	8.070000    	0.000000    	
 TEE-64          	8.470000    	0.000000    	
 TEE-65          	8.350000    	0.000000    	
 TEE-66          	8.290000    	0.000000    	
 TEE-66.1        	8.290000    	0.000000    	
 TEE-67          	8.410000    	0.000000    	
 TEE-67.1        	8.410000    	0.000000    	
 TEE-68          	8.690000    	0.000000    	
 TEE-69          	9.000000    	0.000000    	
 TEE-7           	5.700000    	0.000000    	
 TEE-70          	9.480000    	0.000000    	
 TEE-71          	8.510000    	0.000000    	
 TEE-72          	8.640000    	0.000000    	
 TEE-73          	8.740000    	0.000000    	
 TEE-74          	8.450000    	0.000000    	
 TEE-75          	8.660000    	0.000000    	
 TEE-76          	7.980000    	0.000000    	
 TEE-77          	7.350000    	0.000000    	
 TEE-78          	6.430000    	0.000000    	
 TEE-79          	5.770000    	0.000000    	
 TEE-8           	5.780000    	0.000000    	
 TEE-8.1         	5.780000    	0.000000    	
 TEE-80          	5.730000    	0.000000    	
 TEE-81          	6.850000    	0.000000    	
 TEE-82          	6.930000    	0.000000    	
 TEE-83          	7.030000    	0.000000    	
 TEE-84          	5.840000    	0.000000    	
 TEE-85          	6.100000    	0.000000    	
 TEE-86          	8.880000    	0.000000    	
 TEE-86.1        	8.880000    	0.000000    	
 TEE-87          	10.570000   	0.000000    	
 TEE-88          	9.240000    	0.000000    	
 TEE-89          	7.610000    	0.000000    	
 TEE-9           	5.870000    	0.000000    	
 TEE-90          	6.040000    	0.000000    	
 TEE-91          	5.570000    	0.000000    	
 TEE-92          	8.680000    	0.000000    	
 TEE-93          	8.320000    	0.000000    	
 TEE-94          	8.240000    	0.000000    	
 TEE-95          	10.290000   	0.000000    	
 TEE-96          	9.970000    	0.000000    	
 WO-001          	8.220000    	0.000000    	
 WO-002          	8.080000    	0.000000    	
 WO-003          	4.580000    	0.000000    	
 WO-004          	5.670000    	0.000000    	
 WO-005          	7.480000    	0.000000    	
 WO-006          	9.770000    	0.000000    	
 WO-007          	8.590000    	0.000000    	
 WO-008          	5.690000    	0.000000    	
 WO-009          	5.600000    	0.000000    	
;
[RESERVOIRS]
;ID              	Head        	Pattern
;
[TANKS]
;ID              	Elevation   	InitLevel   	MinLevel    	MaxLevel    	Diameter    	MinVol      	VolCurve
 Tank            	5.300000    	6.000000    	0.900000    	7.000000    	0.000000    	0.000000    	Tank
;
[PIPES]
;ID              	Node1           	Node2           	Length      	Diameter    	Roughness   	MinorLoss   	Status
 AV-001.WO-001.1 	AV-001          	WO-001          	112.763680  	200.000000  	0.060000    	0.000000	
 AV-002.TEE-73.1 	AV-002          	TEE-73          	20.534792   	200.000000  	0.060000    	0.000000	
 AV-003.TEE-19.1 	AV-003          	TEE-19          	130.254944  	200.000000  	0.060000    	0.000000	
 AV-004.TEE-7.1  	AV-004          	TEE-7           	48.251793   	200.000000  	0.060000    	0.000000	
 AV-005.TEE-11.1 	AV-005          	TEE-11          	57.139256   	200.000000  	0.060000    	0.000000	
 AV-006.TEE-64.1 	AV-006          	TEE-64          	16.971523   	200.000000  	0.060000    	0.000000	
 AV-007.TEE-55.1 	AV-007          	TEE-55          	81.932953   	200.000000  	0.060000    	0.000000	
 AV-008.TEE-31.1 	AV-008          	TEE-31          	44.676113   	200.000000  	0.060000    	0.000000	
 AV-009.TEE-38.1 	AV-009          	TEE-38          	164.476059  	200.000000  	0.060000    	0.000000	
 NODE-1.DC-74.1  	NODE-1          	DC-74           	5.004968    	100.000000  	0.060000    	0.000000	
 PS.Tank_Out.1   	PS              	Tank_Out        	5.766137    	290.000000  	0.060000    	0.000000	
 Tank_Out.TEE-2.3.1	Tank_Out        	TEE-2.3         	133.180130  	290.000000  	0.060000    	0.000000	
 TEE-1.DC-57.1   	TEE-1           	DC-57           	156.384796  	100.000000  	0.060000    	0.000000	
 TEE-1.TEE-47.1  	TEE-1           	TEE-47          	39.529285   	200.000000  	0.060000    	0.000000	
 TEE-10.1.TEE-79.1	TEE-10.1        	TEE-79          	88.783005   	200.000000  	0.060000    	0.000000	
 TEE-10.TEE-90.1 	TEE-10          	TEE-90          	26.660868   	200.000000  	0.060000    	0.000000	
 TEE-11.DC-23.1  	TEE-11          	DC-23           	3.324567    	100.000000  	0.060000    	0.000000	
 TEE-11.TEE-12.1 	TEE-11          	TEE-12          	201.425354  	200.000000  	0.060000    	0.000000	
 TEE-12.DC-22.1  	TEE-12          	DC-22           	3.382617    	100.000000  	0.060000    	0.000000	
 TEE-12.TEE-13.1 	TEE-12          	TEE-13          	166.850357  	200.000000  	0.060000    	0.000000	
 TEE-13.DC-83.1  	TEE-13          	DC-83           	85.566849   	100.000000  	0.060000    	0.000000	
 TEE-13.TEE-14.1 	TEE-13          	TEE-14          	17.946527   	200.000000  	0.060000    	0.000000	
 TEE-14.DC-84.1  	TEE-14          	DC-84           	2.191841    	100.000000  	0.060000    	0.000000	
 TEE-14.WO-009.1 	TEE-14          	WO-009          	10.810719   	200.000000  	0.060000    	0.000000	
 TEE-15.1.TEE-81.1	TEE-15.1        	TEE-81          	34.777584   	200.000000  	0.060000    	0.000000	
 TEE-15.TEE-16.1 	TEE-15          	TEE-16          	121.635414  	200.000000  	0.060000    	0.000000	
 TEE-16.DC-19.1  	TEE-16          	DC-19           	1.964056    	100.000000  	0.060000    	0.000000	
 TEE-16.TEE-83.1 	TEE-16          	TEE-83          	46.858315   	200.000000  	0.060000    	0.000000	
 TEE-17.DC-18.1  	TEE-17          	DC-18           	2.651427    	100.000000  	0.060000    	0.000000	
 TEE-17.TEE-89.1 	TEE-17          	TEE-89          	54.869759   	200.000000  	0.060000    	0.000000	
 TEE-18.AV-003.1 	TEE-18          	AV-003          	7.020731    	200.000000  	0.060000    	0.000000	
 TEE-18.DC-17.1  	TEE-18          	DC-17           	2.192919    	100.000000  	0.060000    	0.000000	
 TEE-19.DC-1.1   	TEE-19          	DC-1            	117.725479  	100.000000  	0.060000    	0.000000	
 TEE-19.TEE-20.1 	TEE-19          	TEE-20          	24.402670   	200.000000  	0.060000    	0.000000	
 TEE-2.1.TEE-48.1	TEE-2.1         	TEE-48          	33.186363   	290.000000  	0.060000    	0.000000	
 TEE-2.2.TEE-1.1 	TEE-2.2         	TEE-1           	147.411606  	200.000000  	0.060000    	0.000000	
 TEE-20.DC-2.1   	TEE-20          	DC-2            	2.362129    	100.000000  	0.060000    	0.000000	
 TEE-20.TEE-21.1.1	TEE-20          	TEE-21.1        	27.233463   	200.000000  	0.060000    	0.000000	
 TEE-21.3.WO-002.1	TEE-21.3        	WO-002          	140.390167  	200.000000  	0.060000    	0.000000	
 TEE-22.DC-76.1  	TEE-22          	DC-76           	82.894844   	100.000000  	0.060000    	0.000000	
 TEE-22.TEE-23.1 	TEE-22          	TEE-23          	153.804443  	200.000000  	0.060000    	0.000000	
 TEE-23.DC-28.1  	TEE-23          	DC-28           	2.009419    	100.000000  	0.060000    	0.000000	
 TEE-23.TEE-24.1 	TEE-23          	TEE-24          	182.011597  	200.000000  	0.060000    	0.000000	
 TEE-24.DC-29.1  	TEE-24          	DC-29           	2.469815    	100.000000  	0.060000    	0.000000	
 TEE-24.TEE-25.1 	TEE-24          	TEE-25          	181.751816  	200.000000  	0.060000    	0.000000	
 TEE-25.DC-30.1  	TEE-25          	DC-30           	2.142205    	100.000000  	0.060000    	0.000000	
 TEE-25.TEE-26.1 	TEE-25          	TEE-26          	79.328178   	200.000000  	0.060000    	0.000000	
 TEE-26.DC-32.1  	TEE-26          	DC-32           	120.093948  	100.000000  	0.060000    	0.000000	
 TEE-26.TEE-27.1 	TEE-26          	TEE-27          	31.759970   	200.000000  	0.060000    	0.000000	
 TEE-27.DC-31.1  	TEE-27          	DC-31           	4.685657    	100.000000  	0.060000    	0.000000	
 TEE-27.TEE-28.1 	TEE-27          	TEE-28          	36.438343   	200.000000  	0.060000    	0.000000	
 TEE-28.TEE-29.1 	TEE-28          	TEE-29          	180.605835  	200.000000  	0.060000    	0.000000	
 TEE-29.DC-66.1  	TEE-29          	DC-66           	61.775227   	100.000000  	0.060000    	0.000000	
 TEE-29.TEE-30.1 	TEE-29          	TEE-30          	85.663818   	200.000000  	0.060000    	0.000000	
 TEE-3.DC-59.1   	TEE-3           	DC-59           	141.761826  	100.000000  	0.060000    	0.000000	
 TEE-3.WO-003.1  	TEE-3           	WO-003          	5.780613    	200.000000  	0.060000    	0.000000	
 TEE-30.AV-008.1 	TEE-30          	AV-008          	162.499985  	200.000000  	0.060000    	0.000000	
 TEE-30.DC-41.1  	TEE-30          	DC-41           	2.848137    	100.000000  	0.060000    	0.000000	
 TEE-31.DC-42.1  	TEE-31          	DC-42           	12.391404   	100.000000  	0.060000    	0.000000	
 TEE-31.TEE-32.1 	TEE-31          	TEE-32          	142.793808  	200.000000  	0.060000    	0.000000	
 TEE-32.DC-43.1  	TEE-32          	DC-43           	7.387959    	100.000000  	0.060000    	0.000000	
 TEE-33.DC-44.1  	TEE-33          	DC-44           	7.375917    	100.000000  	0.060000    	0.000000	
 TEE-33.TEE-32.1 	TEE-33          	TEE-32          	110.037521  	200.000000  	0.060000    	0.000000	
 TEE-34.TEE-33.1 	TEE-34          	TEE-33          	33.638027   	200.000000  	0.060000    	0.000000	
 TEE-35.DC-45.1  	TEE-35          	DC-45           	9.883358    	100.000000  	0.060000    	0.000000	
 TEE-35.TEE-34.1 	TEE-35          	TEE-34          	147.668915  	200.000000  	0.060000    	0.000000	
 TEE-36.DC-46.1  	TEE-36          	DC-46           	11.514253   	100.000000  	0.060000    	0.000000	
 TEE-36.TEE-35.1 	TEE-36          	TEE-35          	174.826630  	200.000000  	0.060000    	0.000000	
 TEE-37.DC-47.1  	TEE-37          	DC-47           	10.451216   	100.000000  	0.060000    	0.000000	
 TEE-37.TEE-36.1 	TEE-37          	TEE-36          	193.135147  	200.000000  	0.060000    	0.000000	
 TEE-38.DC-48.1  	TEE-38          	DC-48           	9.992895    	100.000000  	0.060000    	0.000000	
 TEE-38.WO-007.1 	TEE-38          	WO-007          	74.637337   	200.000000  	0.060000    	0.000000	
 TEE-39.AV-009.1 	TEE-39          	AV-009          	27.240126   	200.000000  	0.060000    	0.000000	
 TEE-39.DC-49.1  	TEE-39          	DC-49           	9.826370    	100.000000  	0.060000    	0.000000	
 TEE-4.DC-27.1   	TEE-4           	DC-27           	2.170573    	100.000000  	0.060000    	0.000000	
 TEE-4.TEE-5.1   	TEE-4           	TEE-5           	159.737137  	200.000000  	0.060000    	0.000000	
 TEE-40.DC-50.1  	TEE-40          	DC-50           	9.986064    	100.000000  	0.060000    	0.000000	
 TEE-40.TEE-39.1 	TEE-40          	TEE-39          	198.856659  	200.000000  	0.060000    	0.000000	
 TEE-41.DC-51.1  	TEE-41          	DC-51           	9.991280    	100.000000  	0.060000    	0.000000	
 TEE-41.TEE-40.1 	TEE-41          	TEE-40          	153.524582  	200.000000  	0.060000    	0.000000	
 TEE-42.DC-52.1  	TEE-42          	DC-52           	10.007312   	100.000000  	0.060000    	0.000000	
 TEE-42.TEE-41.1 	TEE-42          	TEE-41          	165.824982  	200.000000  	0.060000    	0.000000	
 TEE-43.1.TEE-42.1	TEE-43.1        	TEE-42          	78.020950   	200.000000  	0.060000    	0.000000	
 TEE-43.3.TEE-50.1	TEE-43.3        	TEE-50          	115.527481  	200.000000  	0.060000    	0.000000	
 TEE-44.DC-53.1  	TEE-44          	DC-53           	10.001884   	100.000000  	0.060000    	0.000000	
 TEE-44.TEE-43.2.1	TEE-44          	TEE-43.2        	90.796440   	200.000000  	0.060000    	0.000000	
 TEE-45.DC-54.1  	TEE-45          	DC-54           	10.012182   	100.000000  	0.060000    	0.000000	
 TEE-45.TEE-44.1 	TEE-45          	TEE-44          	192.437714  	200.000000  	0.060000    	0.000000	
 TEE-46.DC-55.1  	TEE-46          	DC-55           	9.999502    	100.000000  	0.060000    	0.000000	
 TEE-46.TEE-45.1 	TEE-46          	TEE-45          	206.643036  	200.000000  	0.060000    	0.000000	
 TEE-47.DC-56.1  	TEE-47          	DC-56           	10.108209   	100.000000  	0.060000    	0.000000	
 TEE-47.TEE-46.1 	TEE-47          	TEE-46          	196.599182  	200.000000  	0.060000    	0.000000	
 TEE-48.DC-58.1  	TEE-48          	DC-58           	2.498697    	100.000000  	0.060000    	0.000000	
 TEE-48.TEE-3.1  	TEE-48          	TEE-3           	25.064676   	290.000000  	0.060000    	0.000000	
 TEE-49.DC-78.1  	TEE-49          	DC-78           	75.925819   	100.000000  	0.060000    	0.000000	
 TEE-49.WO-005.1 	TEE-49          	WO-005          	4.607289    	200.000000  	0.060000    	0.000000	
 TEE-5.DC-26.1   	TEE-5           	DC-26           	2.241153    	100.000000  	0.060000    	0.000000	
 TEE-5.TEE-91.1  	TEE-5           	TEE-91          	131.985291  	200.000000  	0.060000    	0.000000	
 TEE-50.DC-40.1  	TEE-50          	DC-40           	2.493692    	100.000000  	0.060000    	0.000000	
 TEE-50.TEE-49.1 	TEE-50          	TEE-49          	43.739807   	200.000000  	0.060000    	0.000000	
 TEE-51.DC-62.1  	TEE-51          	DC-62           	1.989573    	100.000000  	0.060000    	0.000000	
 TEE-51.TEE-52.1 	TEE-51          	TEE-52          	15.864798   	200.000000  	0.060000    	0.000000	
 TEE-52.DC-63.1  	TEE-52          	DC-63           	76.593330   	100.000000  	0.060000    	0.000000	
 TEE-52.TEE-55.1 	TEE-52          	TEE-55          	122.188217  	200.000000  	0.060000    	0.000000	
 TEE-53.DC-64.1  	TEE-53          	DC-64           	62.316814   	100.000000  	0.060000    	0.000000	
 TEE-53.TEE-87.1 	TEE-53          	TEE-87          	46.498127   	200.000000  	0.060000    	0.000000	
 TEE-54.DC-7.1   	TEE-54          	DC-7            	8.426180    	100.000000  	0.060000    	0.000000	
 TEE-54.TEE-34.1.1	TEE-54          	TEE-34.1        	129.169128  	200.000000  	0.060000    	0.000000	
 TEE-55.DC-36.1  	TEE-55          	DC-36           	3.696228    	100.000000  	0.060000    	0.000000	
 TEE-56.AV-007.1 	TEE-56          	AV-007          	44.857983   	200.000000  	0.060000    	0.000000	
 TEE-56.DC-35.1  	TEE-56          	DC-35           	2.997355    	100.000000  	0.060000    	0.000000	
 TEE-57.2.WO-006.1	TEE-57.2        	WO-006          	29.498169   	200.000000  	0.060000    	0.000000	
 TEE-57.3.TEE-96.1	TEE-57.3        	TEE-96          	49.336647   	200.000000  	0.060000    	0.000000	
 TEE-58.DC-34.1  	TEE-58          	DC-34           	1.660120    	100.000000  	0.060000    	0.000000	
 TEE-58.TEE-59.1 	TEE-58          	TEE-59          	88.141808   	200.000000  	0.060000    	0.000000	
 TEE-59.DC-67.1  	TEE-59          	DC-67           	53.852642   	100.000000  	0.060000    	0.000000	
 TEE-59.TEE-60.1 	TEE-59          	TEE-60          	87.265488   	200.000000  	0.060000    	0.000000	
 TEE-6.AV-004.1  	TEE-6           	AV-004          	101.407593  	200.000000  	0.060000    	0.000000	
 TEE-6.DC-25.1   	TEE-6           	DC-25           	2.283750    	100.000000  	0.060000    	0.000000	
 TEE-60.DC-33.1  	TEE-60          	DC-33           	1.987687    	100.000000  	0.060000    	0.000000	
 TEE-60.TEE-28.1.1	TEE-60          	TEE-28.1        	106.754425  	200.000000  	0.060000    	0.000000	
 TEE-61.DC-60.1  	TEE-61          	DC-60           	139.685730  	100.000000  	0.060000    	0.000000	
 TEE-61.TEE-62.1 	TEE-61          	TEE-62          	83.568398   	200.000000  	0.060000    	0.000000	
 TEE-62.DC-39.1  	TEE-62          	DC-39           	1.962091    	100.000000  	0.060000    	0.000000	
 TEE-62.TEE-63.1 	TEE-62          	TEE-63          	170.710327  	200.000000  	0.060000    	0.000000	
 TEE-63.DC-38.1  	TEE-63          	DC-38           	1.612265    	100.000000  	0.060000    	0.000000	
 TEE-63.TEE-94.1 	TEE-63          	TEE-94          	83.554230   	200.000000  	0.060000    	0.000000	
 TEE-64.DC-37.1  	TEE-64          	DC-37           	1.870065    	100.000000  	0.060000    	0.000000	
 TEE-64.TEE-65.1 	TEE-64          	TEE-65          	89.508217   	200.000000  	0.060000    	0.000000	
 TEE-65.DC-6.1   	TEE-65          	DC-6            	5.005612    	100.000000  	0.060000    	0.000000	
 TEE-65.TEE-66.1 	TEE-65          	TEE-66          	42.366756   	200.000000  	0.060000    	0.000000	
 TEE-66.TEE-67.1 	TEE-66          	TEE-67          	52.298061   	200.000000  	0.060000    	0.000000	
 TEE-67.1.TEE-68.1	TEE-67.1        	TEE-68          	138.647888  	200.000000  	0.060000    	0.000000	
 TEE-67.TEE-71.1 	TEE-67          	TEE-71          	93.248322   	200.000000  	0.060000    	0.000000	
 TEE-68.DC-11.1  	TEE-68          	DC-11           	8.045551    	100.000000  	0.060000    	0.000000	
 TEE-68.TEE-69.1 	TEE-68          	TEE-69          	157.565964  	200.000000  	0.060000    	0.000000	
 TEE-69.DC-10.1  	TEE-69          	DC-10           	8.059311    	100.000000  	0.060000    	0.000000	
 TEE-69.TEE-70.1 	TEE-69          	TEE-70          	242.727203  	200.000000  	0.060000    	0.000000	
 TEE-7.DC-15.1   	TEE-7           	DC-15           	5.006113    	100.000000  	0.060000    	0.000000	
 TEE-7.WO-004.1  	TEE-7           	WO-004          	6.174958    	200.000000  	0.060000    	0.000000	
 TEE-70.DC-9.1   	TEE-70          	DC-9            	8.073072    	100.000000  	0.060000    	0.000000	
 TEE-70.TEE-57.1.1	TEE-70          	TEE-57.1        	191.304794  	200.000000  	0.060000    	0.000000	
 TEE-71.DC-5.1   	TEE-71          	DC-5            	7.901424    	100.000000  	0.060000    	0.000000	
 TEE-71.TEE-72.1 	TEE-71          	TEE-72          	114.978416  	200.000000  	0.060000    	0.000000	
 TEE-72.DC-80.1  	TEE-72          	DC-80           	89.777557   	100.000000  	0.060000    	0.000000	
 TEE-72.TEE-75.1 	TEE-72          	TEE-75          	13.477972   	200.000000  	0.060000    	0.000000	
 TEE-73.DC-4.1   	TEE-73          	DC-4            	8.301048    	100.000000  	0.060000    	0.000000	
 TEE-73.TEE-74.1 	TEE-73          	TEE-74          	170.269424  	200.000000  	0.060000    	0.000000	
 TEE-74.DC-3.1   	TEE-74          	DC-3            	3.603235    	100.000000  	0.060000    	0.000000	
 TEE-74.TEE-21.2.1	TEE-74          	TEE-21.2        	137.847458  	200.000000  	0.060000    	0.000000	
 TEE-75.DC-69.1  	TEE-75          	DC-69           	2.641401    	100.000000  	0.060000    	0.000000	
 TEE-75.TEE-92.1 	TEE-75          	TEE-92          	19.377373   	200.000000  	0.060000    	0.000000	
 TEE-76.AV-001.1 	TEE-76          	AV-001          	150.588913  	200.000000  	0.060000    	0.000000	
 TEE-76.DC-12.1  	TEE-76          	DC-12           	8.369851    	100.000000  	0.060000    	0.000000	
 TEE-77.DC-13.1  	TEE-77          	DC-13           	8.568372    	100.000000  	0.060000    	0.000000	
 TEE-77.TEE-76.1 	TEE-77          	TEE-76          	156.826324  	200.000000  	0.060000    	0.000000	
 TEE-78.DC-14.1  	TEE-78          	DC-14           	8.037039    	100.000000  	0.060000    	0.000000	
 TEE-78.TEE-77.1 	TEE-78          	TEE-77          	179.010071  	200.000000  	0.060000    	0.000000	
 TEE-79.DC-71.1  	TEE-79          	DC-71           	1.991808    	100.000000  	0.060000    	0.000000	
 TEE-79.TEE-80.1 	TEE-79          	TEE-80          	12.576893   	200.000000  	0.060000    	0.000000	
 TEE-8.1.TEE-78.1	TEE-8.1         	TEE-78          	118.341385  	200.000000  	0.060000    	0.000000	
 TEE-8.TEE-9.1   	TEE-8           	TEE-9           	76.765694   	200.000000  	0.060000    	0.000000	
 TEE-80.DC-85.1  	TEE-80          	DC-85           	41.263916   	100.000000  	0.060000    	0.000000	
 TEE-80.WO-008.1 	TEE-80          	WO-008          	16.268089   	200.000000  	0.060000    	0.000000	
 TEE-81.DC-20.1  	TEE-81          	DC-20           	2.500320    	100.000000  	0.060000    	0.000000	
 TEE-81.TEE-82.1 	TEE-81          	TEE-82          	27.384531   	200.000000  	0.060000    	0.000000	
 TEE-82.DC-16.1  	TEE-82          	DC-16           	124.440781  	100.000000  	0.060000    	0.000000	
 TEE-82.DC-21.1  	TEE-82          	DC-21           	129.845795  	100.000000  	0.060000    	0.000000	
 TEE-83.DC-82.1  	TEE-83          	DC-82           	175.239029  	100.000000  	0.060000    	0.000000	
 TEE-83.TEE-17.1 	TEE-83          	TEE-17          	226.657883  	200.000000  	0.060000    	0.000000	
 TEE-84.DC-72.1  	TEE-84          	DC-72           	12.372114   	100.000000  	0.060000    	0.000000	
 TEE-84.TEE-85.1 	TEE-84          	TEE-85          	262.108063  	200.000000  	0.060000    	0.000000	
 TEE-85.DC-73.1  	TEE-85          	DC-73           	5.000360    	100.000000  	0.060000    	0.000000	
 TEE-85.NODE-1.1 	TEE-85          	NODE-1          	181.889084  	200.000000  	0.060000    	0.000000	
 TEE-86.1.TEE-88.1	TEE-86.1        	TEE-88          	161.973633  	200.000000  	0.060000    	0.000000	
 TEE-86.TEE-37.1 	TEE-86          	TEE-37          	64.114304   	200.000000  	0.060000    	0.000000	
 TEE-87.DC-65.1  	TEE-87          	DC-65           	60.708248   	100.000000  	0.060000    	0.000000	
 TEE-87.TEE-54.1 	TEE-87          	TEE-54          	73.241302   	200.000000  	0.060000    	0.000000	
 TEE-88.DC-61.1  	TEE-88          	DC-61           	78.757530   	100.000000  	0.060000    	0.000000	
 TEE-88.TEE-51.1 	TEE-88          	TEE-51          	44.007847   	200.000000  	0.060000    	0.000000	
 TEE-89.DC-81.1  	TEE-89          	DC-81           	151.702301  	100.000000  	0.060000    	0.000000	
 TEE-89.TEE-18.1 	TEE-89          	TEE-18          	189.387299  	200.000000  	0.060000    	0.000000	
 TEE-9.DC-24.1   	TEE-9           	DC-24           	3.494965    	100.000000  	0.060000    	0.000000	
 TEE-9.TEE-10.1  	TEE-9           	TEE-10          	123.927643  	200.000000  	0.060000    	0.000000	
 TEE-90.AV-005.1 	TEE-90          	AV-005          	6.692443    	200.000000  	0.060000    	0.000000	
 TEE-90.DC-70.1  	TEE-90          	DC-70           	133.561401  	100.000000  	0.060000    	0.000000	
 TEE-91.DC-79.1  	TEE-91          	DC-79           	154.415512  	100.000000  	0.060000    	0.000000	