[TITLE]
Scenario: cmz 
Date: 7/7/2019 11:09:35 AM 

[CURVES]
;PUMP:
52 909.444444444444 110
;EFFICIENCY:
52E 0 100

[JUNCTIONS]
33 3.5 0 
35 4.5 0 
41 17.5449256896973 0 
47 43.1662826538086 0 
49 42 0 
55 23 0 
69 6 0 
88 3.5 0 
100 7.27674150466919 0 
102 7.49518251419067 0 
104 6.91497278213501 0 
106 6.94124698638916 0 
108 8.3786563873291 0 
110 9.93770599365234 0 
112 11.1952180862427 0 
114 12.3227167129517 0 
116 14.070216178894 0 
118 13.7470235824585 0 
120 14.2444438934326 0 
122 16.2523899078369 0 
124 15.9140644073486 0 
126 16.7248077392578 0 
128 17.686450958252 0 
131 18.9691467285156 0 
133 21.4183444976807 0 
135 22.4862232208252 0 
137 22.9305152893066 0 
139 23.154993057251 0 
141 24.312442779541 0 
143 23.5369472503662 0 
145 25.6528358459473 0 
147 26.9767169952393 0 
149 28.6582183837891 0 
151 29.7498340606689 0 
153 30.8926200866699 0 
155 31.9727077484131 0 
157 33.1990242004395 0 
159 34.5333976745605 0 
161 35.5153884887695 0 
163 36.5704612731934 0 
165 37.8242568969727 0 
167 39.4897537231445 0 
169 40.6707000732422 0 
171 42.1061058044434 0 
52-A 3 0 
52-B 3 0 

[RESERVOIRS]
51 3.1 

[DEMANDS]
49 909.444444444444 

[EMITTERS]

[PUMPS]
52 52-A 52-B HEAD 52 SPEED 1  

[PIPES]
50 47 49 88.3432511430812 800 140 0 
53 51 52-A 4.70772235887925 800 140 0 
56 41 55 253.097401130154 800 140 0 
70 52-B 69 2.06492832477675 800 140 0 
71 69 33 58.8681401508843 800 140 0 
89 33 88 291.941573258637 800 140 0 
90 88 35 332.334296798284 800 140 0 
101 35 100 482.866900710979 800 140 0 
103 100 102 503.559439517856 800 140 0 
105 102 104 491.319774500921 800 140 0 
107 104 106 512.616866629148 800 140 0 
109 106 108 502.819027442801 800 140 0 
111 108 110 493.517886145223 800 140 0 
113 110 112 494.197460711294 800 140 0 
115 112 114 512.352764891333 800 140 0 
117 114 116 490.267529584603 800 140 0 
119 116 118 515.994926099934 800 140 0 
121 118 120 492.561127438159 800 140 0 
123 120 122 500.40219738299 800 140 0 
125 122 124 511.340087171691 800 140 0 
127 124 126 491.860961031185 800 140 0 
129 126 128 494.71319913622 800 140 0 
130 128 41 285.88259836142 800 140 0 
132 41 131 232.359196083725 800 140 0 
134 131 133 501.471083692062 800 140 0 
136 133 135 497.679467083055 800 140 0 
138 135 137 502.803941182041 800 140 0 
140 137 139 499.087317292251 800 140 0 
142 139 141 499.699634478321 800 140 0 
144 141 143 505.655746291837 800 140 0 
146 143 145 498.585303945604 800 140 0 
148 145 147 504.956354857678 800 140 0 
150 147 149 494.910416611871 800 140 0 
152 149 151 542.776932828469 800 140 0 
154 151 153 561.603338186193 800 140 0 
156 153 155 519.116063208497 800 140 0 
158 155 157 510.75710066577 800 140 0 
160 157 159 510.30533450931 800 140 0 
162 159 161 498.327152538541 800 140 0 
164 161 163 514.73696284872 800 140 0 
166 163 165 502.246156801899 800 140 0 
168 165 167 519.605703082117 800 140 0 
170 167 169 503.565616620334 800 140 0 
172 169 171 499.824667711656 800 140 0 
173 171 47 365.318735719785 800 140 0 

[COORDINATES]
33 523613.467445651 2334052.0279641  
35 523542.128763001 2333431.88141059  
41 531284.913448024 2332762.53995558  
47 540589.452724644 2336223.33885712  
49 540528.238720411 2336287.03639011  
55 531280.405407953 2333015.59720609  
69 523671.906207132 2334044.93084628  
88 523576.622178106 2333762.4208018  
100 524022.560925143 2333383.45227285  
102 524523.375604099 2333330.94735432  
104 525012.538647532 2333284.96216372  
106 525522.140510897 2333229.44646497  
108 526022.372022531 2333178.50130693  
110 526513.468480355 2333129.67331232  
112 527005.108493695 2333079.46148645  
114 527514.985148628 2333029.15092647  
116 528002.770388428 2332979.87811046  
118 528516.007628444 2332926.60241973  
120 529006.234293868 2332878.70376871  
122 529503.79704283 2332825.47154171  
124 530012.580601 2332774.63706135  
126 530504.319974774 2332763.70119071  
128 530999.031009384 2332762.23775823  
131 531517.246507059 2332766.02502145  
133 532018.711996072 2332768.39379924  
135 532515.976065794 2332748.06409389  
137 533017.755667738 2332715.98552876  
139 533515.649913417 2332681.49682913  
141 534014.26274467 2332648.55795837  
143 534518.673292044 2332613.09342036  
145 535016.257675793 2332581.51674606  
147 535520.045622072 2332547.18563051  
149 536013.944880423 2332515.56533528  
151 536555.348573552 2332476.97984737  
153 536967.591830526 2332858.36391434  
155 537345.458074736 2333214.31136632  
157 537719.650242936 2333561.95060049  
159 538093.555796601 2333909.23459288  
161 538458.824562982 2334248.21642021  
163 538835.649908141 2334598.86838466  
165 539203.065407922 2334941.29655602  
167 539582.935078266 2335295.82317029  
169 539952.920539279 2335637.42101701  
171 540320.530263991 2335976.07687293  
51 523678.617244612 2334044.01939072  
52-A 523673.952058956 2334044.65081181  
52-B 523673.952058956 2334044.65081181  

[VERTICES]
125 529776.199596071 2332800.70180497

[OPTIONS]
UNITS LPS 
TRIALS 40 
ACCURACY 0.001 
EMITTER EXPONENT 0.5 
DAMPLIMIT 0 
MAXCHECK 10 
CHECKFREQ 2 
SPECIFIC GRAVITY 0.998 
VISCOSITY 0.982157860636364 
HEADLOSS H-W 
QUALITY NONE 

[TIMES]
REPORT START 0  
PATTERN TIMESTEP 1  
QUALITY TIMESTEP 0  

[ENERGY]
PUMP 52 EFFIC 52E 

