[TITLE]


[JUNCTIONS]
;ID              	Elev        	Demand      	Pattern         
 3               	564         	0.011666666 	                	;
 4               	576         	0.011666666 	                	;
 5               	628         	0.011666666 	                	;
 6               	686         	0.011666666 	                	;686
 7               	718         	0.011666666 	                	;
 8               	718         	0           	                	;
 9               	708         	0.011666666 	                	;
 10              	710         	0.011666666 	                	;
 11              	744         	0           	                	;
 12              	736         	0.011666666 	                	;
 13              	768         	0           	                	;
 14              	768         	0.011666666 	                	;
 15              	774         	0           	                	;
 16              	774         	0.011666666 	                	;
 17              	790         	0.011666666 	                	;
 18              	798         	0.011666666 	                	;
 19              	798         	0           	                	;
 20              	824         	0           	                	;
 21              	830         	0.011666666 	                	;
 22              	828         	0           	                	;
 23              	828         	0.011666666 	                	;
 24              	828         	0           	                	;
 25              	828         	0.011666666 	                	;
 26              	828         	0           	                	;
 27              	828         	0.011666666 	                	;
 28              	828         	0           	                	;
 29              	814         	0.011666666 	                	;
 30              	824         	0.011666666 	                	;
 31              	818         	0.04925     	                	;
 32              	814         	0           	                	;
 33              	808         	0.04925     	                	;
 34              	810         	0           	                	;
 35              	808         	0.04925     	                	;
 36              	796         	0           	                	;
 37              	804         	0.04925     	                	;
 38              	792         	0           	                	;
 39              	798         	0.04925     	                	;
 40              	790         	0           	                	;
 41              	794         	0.04925     	                	;
 42              	790         	0           	                	;
 43              	806         	0.04925     	                	;
 44              	788         	0.04925     	                	;
 45              	786         	0           	                	;
 46              	794         	0.04925     	                	;
 47              	788         	0           	                	;
 48              	782         	0.028620689 	                	;
 49              	790         	0.028620689 	                	;
 50              	790         	0           	                	;
 51              	800         	0.028620689 	                	;
 52              	796         	0           	                	;
 53              	796         	0.028620689 	                	;
 54              	790         	0           	                	;
 55              	796         	0.028620689 	                	;
 56              	802         	0           	                	;
 57              	796         	0           	                	;
 58              	798         	0.04925     	                	;
 59              	792         	0           	                	;
 60              	796         	0.04925     	                	;
 61              	814         	0.04925     	                	;
 62              	810         	0.04925     	                	;
 63              	826         	0           	                	;
 64              	822         	0.04925     	                	;
 65              	822         	0           	                	;
 66              	822         	0.04925     	                	;
 67              	816         	0           	                	;
 68              	816         	0.04925     	                	;
 69              	818         	0           	                	;
 70              	818         	0.04925     	                	;
 71              	830         	0.04925     	                	;
 72              	816         	0.04925     	                	;
 73              	800         	0.04925     	                	;
 74              	802         	0           	                	;
 75              	810         	0.04925     	                	;
 76              	800         	0           	                	;
 77              	814         	0.04925     	                	;
 78              	800         	0.04925     	                	;
 79              	774         	0.04925     	                	;
 80              	798         	0.04925     	                	;
 81              	804         	0           	                	;
 82              	834         	0.04925     	                	;
 89              	798         	0           	                	;
 90              	810         	0.020645161 	                	;
 91              	794         	0           	                	;
 92              	802         	0.020645161 	                	;
 93              	784         	0           	                	;
 94              	792         	0.020645161 	                	;
 95              	775         	0.020645161 	                	;
 96              	814         	0           	                	;
 97              	790         	0           	                	;
 98              	786         	0           	                	;
 99              	784         	0.012857142 	                	;
 100             	776         	0.012857142 	                	;
 101             	773         	0.012857142 	                	;
 102             	778         	0           	                	;
 103             	784         	0           	                	;
 104             	778         	0           	                	;
 105             	776         	0.012857142 	                	;
 106             	774         	0           	                	;
 107             	752         	0.012857142 	                	;
 108             	748         	0           	                	;
 109             	718         	0           	                	;
 110             	732         	0           	                	;
 111             	732         	0.012857142 	                	;
 112             	750         	0.012857142 	                	;
 113             	674         	0.012857142 	                	;
 114             	618         	0.012857142 	                	;
 115             	608         	0.012857142 	                	;
 116             	584         	0           	                	;
 117             	618         	0.012857142 	                	;
 118             	566         	0           	                	;
 119             	574         	0.012857142 	                	;
 120             	560         	0.012857142 	                	;
 121             	776         	0.012857142 	                	;
 122             	814         	0           	                	;
 123             	814         	0.012857142 	                	;
 124             	810         	0           	                	;
 125             	810         	0.012857142 	                	;
 126             	804         	0           	                	;
 127             	798         	0.012857142 	                	;
 128             	778         	0           	                	;
 129             	774         	0.012857142 	                	;
 130             	770         	0.012857142 	                	;
 131             	710         	0.012857142 	                	;
 132             	696         	0.012857142 	                	;
 133             	768         	0           	                	;
 134             	794         	0.020645161 	                	;
 135             	758         	0.020645161 	                	;
 136             	764         	0.020645161 	                	;
 137             	748         	0           	                	;
 138             	738         	0.020645161 	                	;
 139             	730         	0           	                	;
 140             	760         	0.020645161 	                	;
 141             	728         	0           	                	;
 142             	698         	0.020645161 	                	;
 143             	728         	0           	                	;
 144             	752         	0.020645161 	                	;
 145             	772         	0           	                	;
 146             	782         	0           	                	;
 147             	764         	0.020645161 	                	;
 148             	774         	0.020645161 	                	;
 149             	760         	0.020645161 	                	;
 150             	728         	0.020645161 	                	;
 151             	734         	0           	                	;
 152             	690         	0.020645161 	                	;
 153             	732         	0           	                	;
 154             	730         	0.020645161 	                	;
 155             	736         	0.020645161 	                	;
 156             	750         	0.020645161 	                	;
 157             	756         	0.020645161 	                	;
 158             	736         	0           	                	;
 159             	754         	0.020645161 	                	;
 160             	746         	0.020645161 	                	;
 161             	754         	0           	                	;
 162             	734         	0           	                	;
 163             	742         	0           	                	;
 164             	728         	0.020645161 	                	;
 165             	754         	0.020645161 	                	;
 166             	746         	0           	                	;
 167             	754         	0.020645161 	                	;
 168             	740         	0           	                	;
 169             	746         	0           	                	;
 170             	734         	0           	                	;
 171             	736         	0.020645161 	                	;
 172             	708         	0.020645161 	                	;
 173             	690         	0.020645161 	                	;
 174             	632         	0.020645161 	                	;
 176             	714         	0           	                	;
 177             	714         	0.020645161 	                	;
 178             	710         	0.020645161 	                	;
 179             	786         	0.04925     	                	;
 180             	744         	0.04925     	                	;
 181             	752         	0.04925     	                	;
 182             	722         	0.04925     	                	;
 183             	794         	0           	                	;
 184             	796         	0.04925     	                	;
 185             	796         	0.04925     	                	;
 186             	796         	0.04925     	                	;
 187             	794         	0.04925     	                	;
 188             	804         	0           	                	;
 189             	804         	0.028620689 	                	;
 190             	800         	0.028620689 	                	;
 191             	800         	0.028620689 	                	;
 192             	794         	0           	                	;
 193             	790         	0.028620689 	                	;
 194             	790         	0           	                	;
 195             	798         	0           	                	;
 196             	792         	0.028620689 	                	;
 197             	814         	0.028620689 	                	;
 198             	802         	0           	                	;
 199             	804         	0.028620689 	                	;
 200             	798         	0           	                	;
 201             	782         	0.028620689 	                	;
 202             	796         	0           	                	;
 203             	782         	0.028620689 	                	;
 204             	790         	0           	                	;
 205             	792         	0.028620689 	                	;
 206             	782         	0           	                	;
 207             	794         	0.028620689 	                	;
 208             	774         	0           	                	;
 209             	794         	0.028620689 	                	;
 210             	770         	0           	                	;
 211             	796         	0.028620689 	                	;
 212             	768         	0           	                	;
 213             	792         	0.028620689 	                	;
 214             	760         	0           	                	;
 215             	744         	0.028620689 	                	;
 216             	762         	0           	                	;
 217             	748         	0.028620689 	                	;
 218             	784         	0.028620689 	                	;
 219             	788         	0           	                	;
 220             	784         	0.028620689 	                	;
 221             	786         	0.028620689 	                	;
 222             	774         	0           	                	;
 223             	782         	0.028620689 	                	;
 224             	782         	0.028620689 	                	;
 225             	746         	0           	                	;
 226             	746         	0.028620689 	                	;
 227             	742         	0           	                	;
 228             	742         	0           	                	;
 229             	756         	0.028620689 	                	;
 230             	738         	0.028620689 	                	;
 231             	748         	0           	                	;
 232             	756         	0.028620689 	                	;
 233             	762         	0.028620689 	                	;
 234             	748         	0           	                	;
 235             	752         	0           	                	;
 236             	762         	0.028620689 	                	;
 237             	744         	0.028620689 	                	;
 238             	742         	0.028620689 	                	;
 239             	740         	0           	                	;
 240             	732         	0.028620689 	                	;
 241             	728         	0           	                	;
 242             	728         	0.028620689 	                	;
 243             	724         	0           	                	;
 244             	710         	0.028620689 	                	;
 245             	710         	0.028620689 	                	;
 246             	738         	0           	                	;
 247             	744         	0.028620689 	                	;
 248             	698         	0.028620689 	                	;
 249             	692         	0.028620689 	                	;
 250             	688         	0           	                	;
 251             	704         	0.028620689 	                	;
 252             	680         	0           	                	;
 253             	690         	0.028620689 	                	;
 254             	744         	0.028620689 	                	;
 255             	656         	0           	                	;
 256             	656         	0.028620689 	                	;
 257             	656         	0.028620689 	                	;
 258             	742         	0.028620689 	                	;
 259             	736         	0.028620689 	                	;
 260             	732         	0.028620689 	                	;
 261             	738         	0           	                	;
 262             	748         	0.028620689 	                	;
 263             	722         	0.028620689 	                	;
 264             	772         	0.028620689 	                	;
 265             	710         	0.028620689 	                	;
 266             	718         	0.028620689 	                	;
 267             	730         	0.028620689 	                	;
 268             	708         	0.028620689 	                	;
 269             	694         	0           	                	;
 270             	694         	0.028620689 	                	;
 271             	680         	0.028620689 	                	;
 1               	796         	0.04925     	                	;
 2               	796         	0.04925     	                	;
 273             	774         	0           	                	;
 274             	716         	0           	                	;
 276             	716         	0           	                	;
 277             	666         	0           	                	;
 279             	666         	0           	                	;
 280             	606         	0           	                	;
 285             	606         	0           	                	;
 286             	774         	0           	                	;
 287             	718         	0           	                	;
 288             	660         	0           	1               	;
 289             	660         	0           	1               	;
 290             	600         	0           	                	;
 291             	600         	0           	                	;
 292             	584         	0           	                	;
 293             	774         	0           	                	;
 294             	714         	0           	                	;
 295             	714         	0           	                	;
 297             	775         	0           	                	;
 298             	775         	0           	                	;
 300             	748         	0           	                	;
 301             	728         	0           	                	;
 302             	734         	0           	                	;
 303             	734         	0           	                	;
 304             	674         	0           	                	;
 305             	674         	0           	                	;
 306             	728         	0           	                	;
 307             	728         	0           	                	;
 308             	772         	0           	                	;
 309             	772         	0           	                	;
 311             	772         	0           	                	;
 312             	772         	0           	                	;
 313             	774         	0           	                	;
 314             	714         	0           	                	;
 315             	714         	0           	                	;
 316             	688         	0           	                	;
 317             	774         	0           	                	;
 318             	774         	0           	                	;
 319             	722         	0.028620689 	                	;
 320             	775         	0           	                	;
 322             	835         	0           	                	;
 323             	835         	0           	                	;
 324             	724         	0           	                	;
 275             	775         	0           	                	;

[RESERVOIRS]
;ID              	Head        	Pattern         
 272             	875         	                	;

[TANKS]
;ID              	Elevation   	InitLevel   	MinLevel    	MaxLevel    	Diameter    	MinVol      	VolCurve
 175             	850         	2           	.52         	5           	10.3        	0           	                	;

[PIPES]
;ID              	Node1           	Node2           	Length      	Diameter    	Roughness   	MinorLoss   	Status
 10              	175             	82              	108.28      	200         	130         	0           	Open  	;
 11              	82              	81              	284.68      	200         	130         	0           	Open  	;
 12              	81              	80              	152.17      	200         	130         	0           	Open  	;
 13              	80              	78              	126.69      	200         	130         	0           	Open  	;
 14              	78              	76              	47.40       	200         	130         	0           	Open  	;
 15              	76              	73              	60.16       	200         	130         	0           	Open  	;
 16              	73              	74              	96.50       	200         	130         	0           	Open  	;
 17              	74              	56              	60.53       	200         	130         	0           	Open  	;
 18              	56              	61              	146.20      	100         	130         	0           	Open  	;
 19              	61              	67              	24.22       	100         	130         	0           	Open  	;
 20              	67              	69              	23.27       	100         	130         	0           	Open  	;
 21              	69              	65              	19.39       	75          	130         	0           	Open  	;
 22              	65              	63              	23.47       	75          	130         	0           	Open  	;
 23              	63              	64              	54.12       	75          	130         	0           	Open  	;
 24              	64              	31              	82.62       	75          	130         	0           	Open  	;
 25              	31              	30              	111.25      	75          	130         	0           	Open  	;
 26              	30              	28              	199.57      	75          	130         	0           	Open  	;
 27              	28              	26              	81.08       	75          	130         	0           	Open  	;
 28              	26              	24              	60.91       	75          	130         	0           	Open  	;
 29              	24              	22              	92.72       	50          	130         	0           	Open  	;
 30              	22              	20              	100.48      	50          	130         	0           	Open  	;
 31              	20              	19              	352.40      	50          	130         	0           	Open  	;
 32              	19              	17              	49.90       	50          	130         	0           	Open  	;
 33              	17              	15              	48.30       	50          	130         	0           	Open  	;
 34              	273             	13              	136.08      	50          	130         	0           	Open  	;
 35              	13              	11              	591.51      	50          	130         	0           	Open  	;
 36              	15              	16              	42.94       	50          	130         	0           	Open  	;
 37              	13              	14              	54.49       	50          	130         	0           	Open  	;
 38              	11              	12              	75.83       	50          	130         	0           	Open  	;
 40              	10              	8               	195.76      	50          	130         	0           	Open  	;
 41              	8               	9               	165.29      	50          	130         	0           	Open  	;
 42              	8               	7               	170.64      	50          	130         	0           	Open  	;
 43              	7               	6               	380.38      	50          	130         	0           	Open  	;
 46              	4               	3               	143.52      	50          	130         	0           	Open  	;
 53              	65              	66              	75.68       	50          	130         	0           	Open  	;
 54              	69              	70              	61.00       	50          	130         	0           	Open  	;
 55              	67              	68              	79.58       	50          	130         	0           	Open  	;
 56              	63              	71              	100.49      	50          	130         	0           	Open  	;
 57              	61              	72              	32.69       	50          	130         	0           	Open  	;
 58              	61              	64              	152.30      	50          	130         	0           	Open  	;
 59              	61              	62              	73.46       	50          	130         	0           	Open  	;
 60              	31              	32              	50.60       	50          	130         	0           	Open  	;
 61              	32              	34              	32.45       	50          	130         	0           	Open  	;
 62              	34              	35              	80.87       	50          	130         	0           	Open  	;
 63              	32              	33              	101.98      	50          	130         	0           	Open  	;
 64              	28              	29              	77.54       	50          	130         	0           	Open  	;
 65              	26              	27              	60.35       	50          	130         	0           	Open  	;
 66              	24              	25              	107.91      	50          	130         	0           	Open  	;
 67              	22              	23              	91.67       	50          	130         	0           	Open  	;
 68              	20              	21              	86.67       	50          	130         	0           	Open  	;
 69              	19              	18              	31.68       	50          	130         	0           	Open  	;
 70              	56              	57              	108.11      	150         	130         	0           	Open  	;
 71              	57              	59              	35.55       	150         	130         	0           	Open  	;
 72              	59              	44              	71.63       	150         	130         	0           	Open  	;
 73              	44              	45              	59.70       	150         	130         	0           	Open  	;
 74              	45              	42              	212.61      	150         	130         	0           	Open  	;
 75              	42              	40              	134.15      	50          	130         	0           	Open  	;
 76              	40              	38              	54.19       	50          	130         	0           	Open  	;
 77              	38              	36              	50.44       	50          	130         	0           	Open  	;
 78              	45              	46              	76.55       	50          	130         	0           	Open  	;
 79              	44              	43              	156.52      	50          	130         	0           	Open  	;
 80              	38              	39              	84.45       	50          	130         	0           	Open  	;
 81              	36              	37              	176.06      	50          	130         	0           	Open  	;
 82              	40              	41              	204.60      	50          	130         	0           	Open  	;
 83              	42              	183             	66.09       	150         	130         	0           	Open  	;
 84              	183             	184             	34.37       	75          	130         	0           	Open  	;
 85              	184             	186             	328.48      	75          	130         	0           	Open  	;
 86              	186             	2               	250.26      	50          	130         	0           	Open  	;
 87              	2               	1               	251.06      	50          	130         	0           	Open  	;
 88              	1               	187             	269.27      	50          	130         	0           	Open  	;
 89              	42              	47              	33.60       	50          	130         	0           	Open  	;
 90              	47              	54              	42.52       	50          	130         	0           	Open  	;
 91              	54              	50              	36.25       	50          	130         	0           	Open  	;
 92              	50              	52              	53.00       	50          	130         	0           	Open  	;
 93              	52              	51              	25.74       	50          	130         	0           	Open  	;
 94              	52              	53              	114.55      	50          	130         	0           	Open  	;
 95              	50              	49              	33.12       	50          	130         	0           	Open  	;
 96              	54              	55              	55.99       	50          	130         	0           	Open  	;
 97              	47              	48              	129.93      	50          	130         	0           	Open  	;
 98              	183             	188             	226.69      	150         	130         	0           	Open  	;
 99              	188             	190             	156.73      	150         	130         	0           	Open  	;
 100             	190             	191             	45.59       	150         	130         	0           	Open  	;
 101             	191             	192             	308.64      	150         	130         	0           	Open  	;
 102             	192             	194             	89.74       	150         	130         	0           	Open  	;
 103             	191             	200             	30.01       	75          	130         	0           	Open  	;