[TITLE]
Scenario: Base 
Date: 11/5/2025 10:06:28 AM 

[CURVES]
;PUMP:
PMP-2 63.8888888888889 60
;EFFICIENCY:
PMP-2E 0 100
;PUMP:
PMP-3 27.7777777777778 90
;EFFICIENCY:
PMP-3E 0 100

[JUNCTIONS]
J-1 1492.8896484375 0 
J-2 1492.46166992188 0 
J-3 1431.1904296875 0 
J-4 1430.99890136719 0 
J-5 1413.58569335937 0 
J-6 1413.51184082031 0 
J-7 1461.78393554688 0 
J-8 1461.6318359375 0 
J-9 1481.39819335938 0 
J-10 1481.2353515625 0 
J-11 1466.75732421875 0 
J-12 1466.384765625 0 
J-17 1407.8486328125 0 
J-18 1407.62292480469 0 
J-19 1470.00756835938 0 
J-20 1469.98083496094 0 
J-22 1429.89770507813 0 
J-23 1448.59790039062 0 
J-24 1448.49243164063 0 
J-26 1424.41516113281 0 
J-27 1417.23400878906 0 
J-28 1416.87707519531 0 
J-29 1472.53942871094 0 
J-30 1472.00341796875 0 
J-31 1478.99792480469 0 
J-32 1479.11474609375 0 
J-34 1455.03820800781 0 
J-35 1447.76672363281 0 
J-36 1446.3642578125 0 
J-37 1413.86120605469 0 
J-38 1413.46337890625 0 
J-40 1423.99182128906 0 
J-41 1480.55456542969 0 
J-42 1424.62280273438 0 
J-43 1424.92224121094 0 
J-44 1488.04602050781 0 
J-45 1489.16137695313 0 
J-46 1490.02856445313 0 
J-47 1490.93237304688 0 
J-48 1395.27404785156 0 
J-49 1394.98364257813 0 
J-50 1453.02465820313 0 
J-51 1453.19934082031 0 
J-54 1459.17883300781 0 
J-55 1459.26745605469 0 
J-56 1449.42395019531 0 
J-57 1449.98132324219 0 
J-58 1449.25610351563 0 
J-59 1448.30090332031 0 
J-60 1451.3828125 0 
J-63 1507.58435058594 0 
J-64 1510.1689453125 0 
J-65 1448.80114746094 0 
J-66 1510.51599121094 0 
J-67 1512.92761230469 0 
J-68 1448.76379394531 0 
J-69 1451.91455078125 0 
J-70 1425.00854492188 0 
J-73 1406.79748535156 0 
J-74 1407.529296875 0 
J-75 1508.76342773438 0 
J-76 1510.755859375 0 
J-77 1473.55187988281 0 
J-78 1472.16760253906 0 
J-79 1450.13037109375 0 
J-80 1450.44177246094 0 
J-81 1493.01892089844 0 
J-82 1495.02966308594 0 
J-83 1450.66345214844 0 
J-84 1513.85034179688 0 
J-85 1516.0380859375 0 
J-86 1449.64624023438 0 
J-87 1450 0 
J-88 1500.02465820313 0 
J-89 1498.29467773438 0 
J-90 1448.32897949219 0 
J-91 1414.52209472656 0 
J-92 1417.39208984375 0 
J-93 1479.82568359375 0 
J-94 1475.16064453125 0 
J-95 1436.06701660156 0 
J-96 1434.9638671875 0 
J-97 1433.98876953125 0 
J-98 1435.06628417969 0 
J-99 1441.04431152344 0 
J-100 1438.53833007813 0 
J-101 1495.50256347656 0 
J-102 1497.46899414063 0 
J-103 1506.45251464844 0 
J-104 1503.15173339844 0 
J-105 1504.74633789063 0 
J-106 1469.99487304688 0 
J-107 1450.42004394531 0 
J-108 1454.51440429688 0 
J-111 1507.19104003906 0 
J-112 1506.99877929688 0 
J-113 1472.31298828125 0 
J-114 1471.15844726563 0 
J-115 1430.92395019531 0 
J-116 1431.44946289063 0 
J-117 1477.98315429688 0 
J-118 1480.11645507813 0 
J-119 1411.09313964844 0 
J-120 1410.58288574219 0 
J-121 1427.19799804688 0 
J-122 1423.40417480469 0 
J-123 1429.72216796875 0 
J-124 1496.10717773438 0 
J-125 1406.23010253906 0 
J-126 1407.85913085938 0 
J-127 1445.93493652344 0 
J-128 1495.146484375 0 
J-129 1440.09655761719 0 
J-130 1494.64672851563 0 
J-131 1410.14538574219 0 
J-132 1409.46813964844 0 
J-133 1408.48571777344 0 
J-134 1414.80603027344 0 
J-135 1464.76171875 0 
J-136 1527.95751953125 0 
J-137 1527.71252441406 0 
J-140 1448.23010253906 0 
J-141 1448.21667480469 0 
J-142 1407.34924316406 0 
J-143 1406.54968261719 0 
J-144 1408.97961425781 0 
J-145 1488.91870117188 0 
J-146 1492.85717773438 0 
J-147 1493.45275878906 0 
J-148 1433.47863769531 0 
J-149 1409.068359375 0 
J-150 1409.43811035156 0 
J-151 1491.65795898438 0 
J-152 1492.00036621094 0 
J-153 1449.65295410156 0 
J-154 1452.64318847656 0 
J-155 1426.99658203125 0 
J-156 1427.07360839844 0 
J-157 1478.92517089844 0 
J-158 1480.70678710938 0 
J-159 1405.27697753906 0 
J-160 1401.92993164063 0 
J-161 1495.05358886719 0 
J-162 1406.04833984375 0 
J-163 1410.04382324219 0 
J-164 1408.4208984375 0 
J-165 1455.20288085938 0 
J-166 1423.37475585938 0 
J-167 1427.0693359375 0 
J-168 1434.09362792969 0 
J-169 1432.16796875 0 
J-170 1500.03881835938 0 
J-171 1412.99780273438 0 
J-172 1444.69653320313 0 
J-173 1409.45581054688 0 
J-174 1487.74853515625 0 
J-175 1487.93286132813 0 
J-176 1439.87768554688 0 
J-177 1438.88610839844 0 
J-178 1440.35375976563 0 
J-179 1445.39660644531 0 
J-180 1448.43444824219 0 
J-181 1448.21704101563 0 
J-182 1448.44116210937 0 
J-183 1454.25183105469 0 
J-184 1475.65502929687 0 
J-185 1498.61193847656 0 
J-186 1419.88000488281 0 
J-187 1404.44006347656 0 
J-188 1405.63720703125 0 
J-189 1433.35021972656 0 
J-190 1426.58984375 0 
J-191 1428.11706542969 0 
J-192 1426.50573730469 0 
J-193 1489.90270996094 0 
J-194 1475.4697265625 0 
J-195 1480.20727539063 0 
J-196 1476.57995605469 0 
J-197 1480.13342285156 0 
J-198 1410.41284179687 0 
J-199 1479.45983886719 0 
J-200 1441.70263671875 0 
J-201 1477.93298339844 0 
J-202 1474.70373535156 0 
J-203 1417.85693359375 0 
J-204 1493.6669921875 0 
J-205 1505.0712890625 0 
J-206 1485.08190917969 0 
J-207 1479.39172363281 0 
J-208 1477.93041992188 0 
J-209 1459.96899414063 0 
J-210 1459.91564941406 0 
J-211 1482.08239746094 0 
J-212 1436.55737304688 0 
J-213 1437.0234375 0 
J-215 1472.76135253906 0 
J-216 1423.72497558594 0 
J-217 1427.69091796875 0 
J-218 1465.17102050781 0 
J-219 1459.99182128906 0 
J-220 1417.892578125 0 
J-221 1401.93920898438 0 
J-222 1404.68701171875 0 
J-223 1494.85913085938 0 
J-224 1457.86547851562 0 
J-225 1461.93664550781 0 
J-227 1407.73449707031 0 
J-228 1445.03271484375 0 
J-229 1449.75354003906 0 
J-230 1496.58605957031 0 
J-231 1411.33752441406 0 
J-232 1410.87414550781 0 
J-233 1461.97875976563 0 
J-234 1455.98156738281 0 
J-235 1465.517578125 0 
J-236 1471.79040527344 0 
J-237 1499.77111816406 0 
J-238 1492.53527832031 0 
J-239 1456.01440429688 0 
J-240 1461.96228027344 0 
J-241 1458.62121582031 0 
J-242 1463.7587890625 0 
J-243 1466.41137695313 0 
J-244 1432.71069335938 0 
J-245 1451.03051757813 0 
J-246 1438.25524902344 0 
J-248 1409.76086425781 0 
J-249 1405.71240234375 0 
J-250 1448.60021972656 0 
J-251 1445.02087402344 0 
J-252 1474.10827636719 0 
J-253 1410.67810058594 0 
J-254 1471.00061035156 0 
J-255 1393.42504882813 0 
J-256 1466.0498046875 0 
J-257 1470.82556152344 0 
J-258 1429.99462890625 0 
J-259 1430.1650390625 0 
J-260 1489.51477050781 0 
J-261 1484.46801757813 0 
J-262 1481.48229980469 0 
J-263 1420 0 
J-264 1420.04321289062 0 
J-265 1407.4306640625 0 
J-266 1471.32482910156 0 
J-267 1458.39428710938 0 
J-268 1469.51379394531 0 
J-269 1435.64953613281 0 
J-270 1489.12963867188 0 
J-271 1498.72143554688 0 
J-272 1474.89489746094 0 
J-273 1431.89123535156 0 
J-274 1505.04260253906 0 
J-275 1497.82336425781 0 
J-276 1443.86828613281 0 
J-277 1452.36926269531 0 
J-281 1427.19201660156 0 
J-282 1422.92102050781 0 
J-283 1433.58813476563 0 
J-284 1431.55859375 0 
J-285 1436.61572265625 0 
J-286 1438.63854980469 0 
J-288 1455.05334472656 0 
J-289 1427.85363769531 0 
J-290 1479.99035644531 0 
J-291 1478.97326660156 0 
J-292 1452.47387695313 0 
J-293 1366.533203125 0 
J-294 1397.22375488281 0 
J-295 1499.37963867188 0 
J-296 1494.15246582031 0 
J-297 1497.59790039063 0 
J-298 1413.06311035156 0 
J-299 1418.0166015625 0 
J-300 1504.791015625 0 
J-301 1399.93359375 0 
J-302 1495.21179199219 0 
J-303 1489.32873535156 0 
J-304 1393.0908203125 0 
J-305 1465.17114257813 0 
J-306 1434.30480957031 0 
J-307 1430.67810058594 0 
J-308 1435.20922851563 0 
J-309 1538.61743164063 0 
J-310 1538.68029785156 0 
J-311 1424.72668457031 0 
J-312 1420.32873535156 0 
J-314 1435.15173339844 0 
J-315 1480.44677734375 0 
J-316 1400 0 
J-317 1436.15283203125 0 
J-318 1439.03845214844 0 
J-320 1441.66650390625 0 
J-321 1436.22839355469 0 
J-322 1450.43737792969 0 
J-323 1452.07019042969 0 
J-324 1451.68737792969 0 
J-325 1473.58386230469 0 
J-326 1410.48693847656 0 
J-327 1458.95190429688 0 
J-328 1410.14538574219 0 
J-329 1403.30456542969 0 
J-330 1410.16613769531 0 
J-331 1418.73889160156 0 
J-332 1479.26745605469 0 
J-333 1500.86279296875 0 
J-334 1416.5439453125 0 
J-335 1420.70678710938 0 
J-336 1382.76989746094 0 
J-337 1477.53845214844 0 
J-338 1500.27221679688 0 
J-339 1448.22033691406 0 
J-340 1486.14294433594 0 
J-341 1438.92163085938 0 
J-342 1445.08972167969 0 
J-343 1519.44177246094 0 
J-344 1416.48693847656 0 
J-345 1466.48168945313 0 
J-346 1464.2138671875 0 
J-347 1464.73022460938 0 
J-348 1436.40124511719 0 
J-350 1466.15869140625 0 
J-351 1443.47375488281 0 
J-352 1499.56323242188 0 
J-353 1499.46337890625 0 
J-354 1430.3349609375 0 
J-356 1513.24133300781 0 
J-357 1454.60131835938 0 
J-358 1409.53149414063 0 
J-359 1441.63916015625 0 
J-360 1509.50671386719 0 
J-361 1497.91711425781 0 
J-362 1504.2724609375 0 
J-363 1509.86730957031 0 
J-364 1524.42785644531 0 
J-365 1487.26623535156 0 
J-366 1483.90747070313 0 
J-367 1490.16625976563 0 
J-368 1527.24560546875 0 
J-369 1451.68859863281 0 
J-370 1402.62841796875 0 
J-371 1531.34204101563 0 
J-372 1440.29174804688 0 
J-373 1430.45251464844 0 
J-374 1513.31823730469 0 
J-375 1432.24182128906 0 
J-376 1418.55700683594 0 
J-377 1421 0 
J-378 1440.0078125 0 
J-379 1423.40246582031 0 
J-380 1515.7958984375 0 
J-381 1480.52575683594 0 
J-382 1422.70690917969 0 
J-383 1427.20385742188 0 
J-384 1445.33630371094 0 
J-385 1388.31396484375 0 
J-386 1384.94592285156 0 
J-387 1523.29296875 0 
J-388 1417.37890625 0 
J-389 1424.58813476563 0 
J-390 1417.68188476563 0 
J-391 1414.1435546875 0 
J-392 1482.97717285156 0 
J-393 1425 0 
J-394 1419.09716796875 0 
J-395 1440.29711914063 0 
J-396 1452.5205078125 0 
J-397 1535 0 
J-398 1414.98254394531 0 
J-399 1434.24951171875 0 
J-400 1461.296875 0 
J-401 1430.03430175781 0 
J-402 1457.30297851563 0 
J-403 1418.67944335938 0 
J-404 1489.91259765625 0 
J-405 1459.73205566406 0 
J-406 1455.98022460938 0 
J-407 1420.50744628906 0 
J-409 1433.09313964844 0 
J-410 1438.07641601563 0 
J-411 1425.4287109375 0 
J-412 1419.27209472656 0 
J-413 1507.3330078125 0 
J-414 1410.86694335938 0 
J-415 1478.10693359375 0 
J-416 1424.18103027344 0 
J-417 1420.044921875 0 
J-418 1436.83117675781 0 
J-420 1506.61608886719 0 
J-421 1473.91223144531 0 
J-423 1399.72729492188 0 
J-424 1504.09008789063 0 
J-426 1406.69592285156 0 
J-427 1485.90454101563 0 
J-428 1435 0 
J-430 1419.85546875 0 
J-431 1480.63818359375 0 
J-432 1439.11645507813 0 
J-433 1433.89111328125 0 
J-434 1545 0 
J-436 1433.97729492188 0 
J-437 1438.8837890625 0 
J-438 1474.18310546875 0 
J-439 1509.52819824219 0 
J-440 1430 0 
J-441 1467.75 0 
J-442 1461.7685546875 0 
J-445 1366.20849609375 0 
J-449 1405.02875002647 0 
J-450 1412.24676066111 0 
J-451 1410.07997653247 0 
J-452 1472.47013526479 0 
J-453 1448.23526023306 0 
J-455 1458.95992664182 0 
J-458 1456.4 0 
J-459 1472.6 0 
J-460 1444.31 0 
J-461 1430 0 
J-462 1426.95135480724 0 
J-463 1425.69739601871 0 
J-464 1425.42612351317 0 
J-465 1422.26466425004 0 
J-466 1417.6580789584 0 
J-469 1409.72481472328 0 
J-470 1416.72904968905 0 
J-471 1413.65583438673 0 
J-472 1439.85342763626 0 
J-473 1474.44970703125 0 
J-480 1522.86992914339 0 
J-482 1524.1911854197 0 
J-483 1523.00757683789 0 
1655-A 1523.88540535893 0 
1655-B 1523.88540535893 0 
1676-A 1523.60671403576 0 
1676-B 1523.60671403576 0 

[RESERVOIRS]
R-1 1525 

[DEMANDS]
J-1 0.0706513083153333 
J-2 0.0471008722102222 
J-3 0.0347098060982778 
J-4 0.0867745152456944 
J-5 0.0520647091474167 
J-6 0.15619412744225 
J-7 0.0160717261930556 
J-8 0.0321434523861111 
J-12 0.0964303571583333 
J-17 0.0347098060982778 
J-18 0.0867745152456944 
J-20 0.0942017444204444 
J-22 0.0867745152456944 
J-26 0.0173549030491389 
J-28 0.0520647091474167 
J-29 0.0471008722102222 
J-31 0.112502083351389 
J-32 0.1446455357375 
J-36 0.123951662447333 
J-37 0.315219396632 
J-38 0.0350243774035556 
J-40 0.0694196121965556 
J-41 0.0706513083153333 
J-42 0.0520647091474167 
J-43 0.0347098060982778 
J-44 0.0706513083153333 
J-45 0.0706513083153333 
J-46 0.0321434523861111 
J-47 0.0160717261930556 
J-48 0.0350243774035556 
J-50 0.117752180525556 
J-51 0.0706513083153333 
J-54 0.170433535865083 
J-55 0.04648187341775 
J-57 0.13944562025325 
J-58 0.0309879156118333 
J-59 0.0309879156118333 
J-60 0.0619758312236667 
J-63 0.0321434523861111 
J-64 0.0321434523861111 
J-65 0.0309879156118333 
J-66 0.028264986228 
J-67 0.014132493114 
J-68 0.0700487548071111 
J-69 0.0175121887017778 
J-70 0.104129418294833 
J-73 0.0520647091474167 
J-74 0.0694196121965556 
J-75 0.014132493114 
J-76 0.028264986228 
J-77 0.0706513083153333 
J-78 0.0235504361051111 
J-81 0.0471008722102222 
J-84 0.07066246557 
J-85 0.098927451798 
J-87 0.0929637468355 
J-88 0.0942017444204444 
J-89 0.0471008722102222 
J-91 0.0520647091474167 
J-92 0.121484321343972 
J-93 0.0350243774035556 
J-94 0.0525365661053333 
J-95 0.0700487548071111 
J-96 0.0875609435088889 
J-97 0.0309879156118333 
J-98 0.0309879156118333 
J-99 0.0154939578059167 
J-100 0.04648187341775 
J-101 0.0471008722102222 
J-102 0.0235504361051111 
J-103 0.098927451798 
J-104 0.117752180525556 
J-105 0.0942017444204444 
J-106 0.0235504361051111 
J-107 0.0619758312236667 
J-108 0.0619758312236667 
J-111 0.014132493114 
J-112 0.0160717261930556 
J-113 0.0321434523861111 
J-114 0.128573809544444 
J-115 0.0525365661053333 
J-116 0.122585320912444 
J-117 0.0482151785791667 
J-118 0.0482151785791667 
J-119 0.104129418294833 
J-120 0.104129418294833 
J-123 0.0173549030491389 
J-125 0.0694196121965556 
J-126 0.138839224393111 
J-127 0.0774697890295833 
J-128 0.0471008722102222 
J-129 0.0774697890295833 
J-130 0.117752180525556 
J-131 0.0347098060982778 
J-132 0.0520647091474167 
J-133 0.0520647091474167 
J-134 0.0867745152456944 
J-135 0.1446455357375 
J-136 0.042397479342 
J-137 0.042397479342 
J-140 0.0706513083153333 
J-142 0.0347098060982778 
J-143 0.0173549030491389 
J-144 0.121484321343972 
J-146 0.188403488840889 
J-147 0.141302616630667 
J-148 0.0350243774035556 
J-149 0.0520647091474167 
J-150 0.121484321343972 
J-151 0.098927451798 
J-152 0.028264986228 
J-153 0.123951662447333 
J-154 0.0929637468355 
J-155 0.0350243774035556 
J-156 0.0350243774035556 
J-157 0.0774697890295833 
J-159 0.0694196121965556 
J-160 0.138839224393111 
J-161 0.0482151785791667 
J-162 0.0694196121965556 
J-164 0.0347098060982778 
J-166 0.138839224393111 
J-167 0.104129418294833 
J-168 0.0525365661053333 
J-169 0.455316906246222 
J-170 0.117752180525556 
J-171 0.0867745152456944 
J-172 0.13944562025325 
J-173 0.0173549030491389 
J-174 0.0706513083153333 
J-175 0.0942017444204444 
J-176 0.122585320912444 
J-177 0.122585320912444 
J-179 0.0347098060982778 
J-181 0.0471008722102222 
J-182 0.0173549030491389 
J-183 0.0173549030491389 
J-184 0.208932440509722 
J-186 0.173549030491389 
J-187 0.0347098060982778 
J-188 0.104129418294833 
J-189 0.0774697890295833 
J-190 0.04648187341775 
J-191 0.121484321343972 
J-192 0.192634075719556 
J-193 0.0642869047722222 
J-194 0.0706513083153333 
J-195 0.141302616630667 
J-196 0.0309879156118333 
J-197 0.0619758312236667 
J-198 0.0175121887017778 
J-199 0.117752180525556 
J-200 0.13944562025325 
J-201 0.0309879156118333 
J-202 0.0619758312236667 
J-203 0.121484321343972 
J-204 0.04648187341775 
J-205 0.0929637468355 
J-206 0.0942017444204444 
J-208 0.0706513083153333 
J-209 0.0309879156118333 
J-210 0.0154939578059167 
J-211 0.04648187341775 
J-212 0.175121887017778 
J-213 0.122585320912444 
J-215 0.0803586309652778 
J-216 0.0173549030491389 
J-217 0.0173549030491389 
J-218 0.0525365661053333 
J-219 0.0875609435088889 
J-220 0.277678448786222 
J-221 0.0525365661053333 
J-222 0.0175121887017778 
J-223 0.128573809544444 
J-224 0.0309879156118333 
J-225 0.123951662447333 
J-227 0.0867745152456944 
J-228 0.0347098060982778 
J-229 0.0173549030491389 
J-230 0.141302616630667 
J-231 0.104129418294833 
J-232 0.0867745152456944 
J-233 0.13944562025325 
J-234 0.0929637468355 
J-235 0.235504361051111 
J-236 0.164853052735778 
J-237 0.211953924946 
J-238 0.0942017444204444 
J-239 0.154939578059167 
J-240 0.0321434523861111 
J-241 0.0160717261930556 
J-242 0.211953924946 
J-243 0.0706513083153333 
J-244 0.04648187341775 
J-245 0.0471008722102222 
J-246 0.0309879156118333 
J-248 0.0694196121965556 
J-249 0.0867745152456944 
J-250 0.122585320912444 
J-252 0.0642869047722222 
J-253 0.0694196121965556 
J-254 0.0235504361051111 
J-256 0.0619758312236667 
J-258 0.0875609435088889 
J-259 0.0175121887017778 
J-261 0.376806977681778 
J-262 0.0706513083153333 
J-263 0.225613739638806 
J-264 0.121484321343972 
J-265 0.138839224393111 
J-266 0.0706513083153333 
J-267 0.108457704641417 
J-268 0.0309879156118333 
J-269 0.157609698316 
J-271 0.164853052735778 
J-272 0.0160717261930556 
J-273 0.04648187341775 
J-274 0.014132493114 
J-275 0.188403488840889 
J-276 0.0347098060982778 
J-277 0.0929637468355 
J-281 0.104129418294833 
J-282 0.0520647091474167 
J-283 0.262682830526667 
J-284 0.122585320912444 
J-285 0.121484321343972 
J-286 0.0173549030491389 
J-288 0.0774697890295833 
J-289 0.0867745152456944 
J-290 0.0803586309652778 
J-291 0.128573809544444 
J-292 0.0706513083153333 
J-293 0.0350243774035556 
J-294 0.0350243774035556 
J-295 0.056529972456 
J-296 0.0706513083153333 
J-297 0.0964303571583333 
J-298 0.173549030491389 
J-299 0.15619412744225 
J-300 0.0235504361051111 
J-301 0.0175121887017778 
J-302 0.0619758312236667 
J-303 0.160717261930556 
J-304 0.0175121887017778 
J-305 0.216915409282833 
J-306 0.0309879156118333 
J-307 0.0154939578059167 
J-308 0.0520647091474167 
J-309 0.014132493114 
J-310 0.056529972456 
J-311 0.105073132210667 
J-312 0.0350243774035556 
J-314 0.140097509614222 
J-315 0.0154939578059167 
J-316 0.104129418294833 
J-317 0.170433535865083 
J-318 0.0774697890295833 
J-320 0.0347098060982778 
J-321 0.0867745152456944 
J-322 0.0347098060982778 
J-323 0.0471008722102222 
J-324 0.170433535865083 
J-325 0.0774697890295833 
J-326 0.0175121887017778 
J-327 0.108457704641417 
J-328 0.121484321343972 
J-329 0.138839224393111 
J-330 0.0347098060982778 
J-332 0.188403488840889 
J-333 0.0706513083153333 
J-334 0.0520647091474167 
J-335 0.0694196121965556 
J-336 0.0175121887017778 
J-337 0.0154939578059167 
J-338 0.235504361051111 
J-339 0.216915409282833 
J-340 0.0154939578059167 
J-341 0.0309879156118333 
J-342 0.0619758312236667 
J-343 0.056529972456 
J-344 0.0867745152456944 
J-345 0.0321434523861111 
J-346 0.112502083351389 
J-348 0.0867745152456944 
J-351 0.192634075719556 
J-353 0.07066246557 
J-356 0.042397479342 
J-357 0.0471008722102222 
J-358 0.0520647091474167 
J-359 0.122585320912444 
J-360 0.0706513083153333 
J-361 0.056529972456 
J-362 0.169589917368 
J-363 0.254384876052 
J-364 0.098927451798 
J-365 0.014132493114 
J-366 0.0929637468355 
J-367 0.0619758312236667 
J-368 0.014132493114 
J-369 0.0774697890295833 
J-370 0.0875609435088889 
J-371 0.084794958684 
J-372 0.04648187341775 
J-373 0.0525365661053333 
J-374 0.0482151785791667 
J-375 0.0774697890295833 
J-376 0.104129418294833 
J-377 0.0520647091474167 
J-378 0.140097509614222 
J-379 0.121484321343972 
J-380 0.04648187341775 
J-381 0.0774697890295833 
J-382 0.0347098060982778 
J-383 0.0619758312236667 
J-384 0.175121887017778 
J-387 0.014132493114 
J-388 0.0520647091474167 
J-389 0.0619758312236667 
J-390 0.0154939578059167 
J-391 0.538001994523306 
J-392 0.0321434523861111 
J-393 0.15619412744225 
J-394 0.0347098060982778 
J-395 0.192634075719556 
J-396 0.0520647091474167 
J-397 0.042397479342 
J-398 0.0347098060982778 
J-399 0.104129418294833 
J-400 0.0706513083153333 
J-401 0.0619758312236667 
J-402 0.123951662447333 
J-403 0.0173549030491389 
J-404 0.0235504361051111 
J-405 0.0619758312236667 
J-406 0.0525365661053333 
J-407 0.0350243774035556 
J-409 0.0875609435088889 
J-410 0.210146264421333 
J-411 0.0694196121965556 
J-413 0.0774697890295833 
J-414 0.0175121887017778 
J-416 0.0619758312236667 
J-417 0.0154939578059167 
J-418 0.0347098060982778 
J-420 0.0235504361051111 
J-421 0.0154939578059167 
J-423 0.0175121887017778 
J-424 0.0964303571583333 
J-426 0.0525365661053333 
J-427 0.273219345281945 
J-430 0.0154939578059167 
J-431 0.0482151785791667 
J-432 0.0867745152456944 
J-433 0.0700487548071111 
J-437 0.201421451476917 
J-438 0.0154939578059167 
J-439 0.07066246557 
J-440 0.0347098060982778 
J-441 0.04648187341775 
J-442 0.0309879156118333 
J-449 0.15619412744225 
J-450 0.138839224393111 
J-451 0.15619412744225 
J-455 0.0619758312236667 
J-469 0.225613739638806 
J-472 0.108457704641417 
J-473 0.0309879156118333 

[EMITTERS]

[PUMPS]
PMP-2 1655-A 1655-B HEAD PMP-2 SPEED 1  
PMP-3 1676-A 1676-B HEAD PMP-3 SPEED 1  

[PIPES]
pipe4-304 J-1 J-2 3.74273189082151 63 130 0 
pipe4-375 J-3 J-4 6.6137495992987 125 130 0 
pipe4-350 J-5 J-6 5.41235643095455 125 130 0 
pipe4-397 J-7 J-8 7.78203319565098 125 130 0 
pipe4-481 J-9 J-10 5.86838052248093 150 130 0 
pipe4-395 J-11 J-12 10.3742695244537 125 130 0 
pipe4-360 J-17 J-18 6.49433603404797 125 130 0 
pipe4-282 J-19 J-20 6.5953214399578 63 130 0 
pipe4-113 J-461 J-22 18.6329595412251 63 130 0 
pipe4-429 J-23 J-24 4.78308118914662 125 130 0 
pipe4-344 J-463 J-26 18.1029224344939 125 130 0 
pipe4-421 J-27 J-28 15.6373713632351 125 130 0 
pipe4-309 J-29 J-30 9.60318248590689 63 130 0 
pipe4-401 J-31 J-32 13.4676827363515 125 130 0 
pipe4-486 J-458 J-34 13.3588333851514 150 130 0 
pipe4-422 J-35 J-36 13.9191794329423 125 130 0 
pipe4-447 J-37 J-38 10.846007255819 125 130 0 
pipe4-368 J-464 J-40 3.97444717470668 125 130 0 
pipe4-460 J-41 J-10 11.2973232562022 125 130 0 
pipe4-76 J-42 J-43 15.2202762172124 63 130 0 
pipe4-326 J-44 J-45 14.3373345559612 63 130 0 
pipe4-387 J-46 J-47 12.8583252850358 125 130 0 
pipe4-443 J-48 J-49 16.1290113097466 125 130 0 
pipe4-292 J-50 J-51 17.3414332436571 63 130 0 
pipe4-223 J-54 J-55 18.4965625138274 63 130 0 
pipe4-64 J-56 J-57 19.5020411428247 63 130 0 
pipe4-274 J-58 J-59 17.5005481065455 63 130 0 
pipe4-378 J-56 J-60 25.5709728465296 125 130 0 
pipe4-53 J-63 J-64 21.5932745884149 63 130 0 
pipe4-101 J-58 J-65 21.8048404809573 63 130 0 
pipe4-342 J-66 J-67 23.9619983929799 63 130 0 
pipe4-1 J-68 J-69 24.3974169497104 63 130 0 
pipe4-404 J-42 J-70 25.4645194688923 125 130 0 
pipe4-438 J-73 J-74 65.0372880295599 125 130 0 
pipe4-473 J-75 J-76 37.4116862958077 125 130 0 
pipe4-288 J-77 J-78 30.3429274413381 63 130 0 
pipe4-492 J-79 J-80 29.8686334233828 150 130 0 
pipe4-464 J-81 J-82 30.1270843054142 125 130 0 
pipe4-497 J-79 J-83 32.0937177826483 150 130 0 
pipe4-331 J-84 J-85 42.5226561261533 63 130 0 
pipe4-432 J-24 J-86 33.9738605455415 125 130 0 
pipe4-430 J-86 J-87 35.8150156464824 125 130 0 
pipe4-315 J-88 J-89 40.1271504755247 63 130 0 
pipe4-489 J-90 J-35 41.9596835358756 150 130 0 
pipe4-188 J-91 J-92 38.7904611527021 63 130 0 
pipe4-2 J-93 J-94 39.5554776141382 63 130 0 
pipe4-450 J-95 J-96 39.6083945973314 125 130 0 
pipe4-58 J-97 J-98 40.3802753841766 63 130 0 
pipe4-256 J-99 J-100 40.4379359983128 63 130 0 
pipe4-328 J-101 J-102 41.4988271936745 63 130 0 
pipe4-338 J-103 J-66 43.9793226794835 63 130 0 
pipe4-330 J-104 J-105 45.8887996572997 63 130 0 
pipe4-289 J-78 J-106 46.2291105375136 63 130 0 
pipe4-27 J-107 J-108 52.9954918712559 63 130 0 
pipe4-477 J-111 J-75 44.1618132954971 125 130 0 
pipe4-3 J-63 J-112 49.8318207573433 63 130 0 
pipe4-69 J-113 J-114 49.2251534818199 63 130 0 
pipe4-160 J-115 J-116 48.9599856787423 63 130 0 
pipe4-388 J-117 J-118 52.6668934432042 125 130 0 
pipe4-351 J-119 J-120 55.6368617696124 125 130 0 
pipe4-4 J-121 J-122 51.3692312051018 63 130 0 
pipe4-78 J-43 J-123 52.6828985929541 63 130 0 
pipe4-313 J-89 J-124 52.2424638805307 63 130 0 
pipe4-290 J-19 J-106 52.5532724264528 63 130 0 
pipe4-353 J-125 J-126 43.8466974930199 125 130 0 
pipe4-5 J-107 J-127 53.0691138555011 63 130 0 
pipe4-327 J-128 J-101 53.7718459651428 63 130 0 
pipe4-184 J-36 J-129 166.110151679371 63 130 0 
pipe4-463 J-130 J-81 57.1970460506775 125 130 0 
pipe4-485 J-17 J-131 58.9659636499587 150 130 0 
pipe4-125 J-132 J-133 64.304213522119 63 130 0 
pipe4-347 J-134 J-119 63.7327772569195 125 130 0 
pipe4-390 J-8 J-135 54.2151875583821 125 130 0 
pipe4-334 J-136 J-137 58.8157430466521 63 130 0 
pipe4-358 J-140 J-141 59.304656759434 125 130 0 
pipe4-403 J-142 J-143 60.9423202701966 125 130 0 
pipe4-59 J-125 J-144 57.5941602879598 63 130 0 
pipe4-383 J-145 J-93 72.8010529252926 125 130 0 
pipe4-285 J-146 J-147 61.3170547625913 63 130 0 
pipe4-474 J-76 J-84 53.0333653389205 125 130 0 
pipe4-166 J-116 J-148 61.9340273108393 63 130 0 
pipe4-362 J-149 J-150 60.7589074805165 125 130 0 
pipe4-6 J-151 J-152 60.7740309887087 63 130 0 
pipe4-26 J-153 J-107 92.903925845743 63 130 0 
pipe4-110 J-154 J-60 61.2626305026111 63 130 0 
pipe4-105 J-155 J-156 61.3851254341269 63 130 0 
pipe4-270 J-157 J-158 62.4139149804759 63 130 0 
pipe4-365 J-159 J-160 58.4284593934294 125 130 0 
pipe4-107 J-47 J-161 66.5385776970917 63 130 0 
pipe4-413 J-162 J-163 66.2990507630777 125 130 0 
pipe4-361 J-150 J-164 64.9175637296967 125 130 0 
pipe4-293 J-51 J-165 65.8860092630358 63 130 0 
pipe4-7 J-166 J-167 65.5616821581946 63 130 0 
pipe4-8 J-96 J-168 65.852309881112 63 130 0 
pipe4-162 J-116 J-169 68.0210214008399 63 130 0 
pipe4-329 J-170 J-104 66.5423655661663 63 130 0 
pipe4-60 J-144 J-171 65.8202365061157 63 130 0 
pipe4-9 J-154 J-172 66.7282022723753 63 130 0 
pipe4-399 J-12 J-7 65.8544414318342 125 130 0 
pipe4-98 J-149 J-173 66.9576796885205 63 130 0 
pipe4-458 J-174 J-175 68.1221786180385 125 130 0 
pipe4-159 J-176 J-177 67.8738469422689 63 130 0 
pipe4-10 J-178 J-179 68.0598856445564 63 130 0 
pipe4-357 J-180 J-181 74.1719974946269 125 130 0 
pipe4-217 J-182 J-183 68.5110442947887 63 130 0 
pipe4-400 J-184 J-31 72.3006576255274 125 130 0 
pipe4-468 J-128 J-185 70.3101114219963 125 130 0 
pipe4-420 J-186 J-27 66.5669985937038 125 130 0 
pipe4-411 J-187 J-188 70.624136762256 125 130 0 
pipe4-155 J-189 J-190 70.6987678037249 63 130 0 
pipe4-345 J-26 J-191 67.8397378491806 125 130 0 
pipe4-106 J-192 J-155 78.1892068425005 63 130 0 
pipe4-11 J-193 J-46 57.0636258182356 63 130 0 
pipe4-12 J-78 J-194 70.8713604281476 63 130 0 
pipe4-457 J-195 J-174 70.9755335261844 125 130 0 
pipe4-236 J-196 J-197 71.1169041615761 63 130 0 
pipe4-446 J-38 J-198 71.8391155649915 125 130 0 
pipe4-310 J-41 J-199 72.0912173949379 63 130 0 
pipe4-240 J-200 J-23 73.0383638171025 63 130 0 
pipe4-119 J-201 J-202 73.6215920589656 63 130 0 
pipe4-124 J-203 J-27 74.7815157728249 63 130 0 
pipe4-235 J-204 J-205 73.8873939831074 63 130 0 
pipe4-366 J-164 J-159 75.9764019252265 125 130 0 
pipe4-13 J-45 J-206 107.505194536341 63 130 0 
pipe4-323 J-207 J-208 77.321682045638 63 130 0 
pipe4-380 J-209 J-210 78.7168295129553 125 130 0 
pipe4-116 J-157 J-211 77.6963407560969 63 130 0 
pipe4-201 J-95 J-212 78.2714526966194 63 130 0 
pipe4-14 J-155 J-213 78.5557511943905 63 130 0 
pipe4-68 J-215 J-113 76.420436257518 63 130 0 
pipe4-130 J-216 J-217 79.3845130910849 63 130 0 
pipe4-15 J-218 J-219 79.4588492464511 63 130 0 
pipe4-175 J-220 J-171 80.3958498752855 63 130 0 
pipe4-16 J-221 J-222 80.264907103602 63 130 0 
pipe4-248 J-193 J-223 79.8341858003072 63 130 0 
pipe4-425 J-224 J-225 84.2028478427512 125 130 0 
pipe4-187 J-449 J-227 79.2175218058911 63 130 0 
pipe4-452 J-96 J-169 80.3997788963434 125 130 0 
pipe4-17 J-228 J-229 82.0432146979174 63 130 0 
pipe4-18 J-89 J-230 80.987857483129 63 130 0 
pipe4-419 J-28 J-134 100.219756829217 125 130 0 
pipe4-408 J-231 J-232 82.0269506065054 125 130 0 
pipe4-90 J-233 J-234 81.7570232067096 63 130 0 
pipe4-453 J-235 J-236 82.7278201295222 125 130 0 
pipe4-19 J-82 J-237 82.2045009186535 63 130 0 
pipe4-20 J-101 J-238 82.9116385547749 63 130 0 
pipe4-89 J-239 J-233 82.2744360877589 63 130 0 
pipe4-252 J-240 J-241 84.3610805705927 63 130 0 
pipe4-296 J-242 J-243 90.4619917265406 63 130 0 
pipe4-57 J-244 J-97 83.959511064343 63 130 0 
pipe4-22 J-51 J-245 83.0166214016631 63 130 0 
pipe4-225 J-246 J-244 87.8780106788443 63 130 0 
pipe4-21 J-451 J-164 83.8051264487773 63 130 0 
pipe4-82 J-215 J-12 80.5788453048582 63 130 0 
pipe4-81 J-184 J-215 119.684542895032 63 130 0 
pipe4-23 J-120 J-132 84.8336745436895 63 130 0 
pipe4-153 J-248 J-249 86.6325118154718 63 130 0 
pipe4-491 J-250 J-251 85.0379418770972 150 130 0 
pipe4-200 J-114 J-252 85.0287660999795 63 130 0 
pipe4-410 J-253 J-131 85.2359413773363 125 130 0 
pipe4-291 J-106 J-254 86.2465130238828 63 130 0 
pipe4-278 J-49 J-255 86.3213783345615 63 130 0 
pipe4-233 J-256 J-257 86.8351031081809 63 130 0 
pipe4-428 J-258 J-259 91.6529891176248 125 130 0 
pipe4-311 J-260 J-261 86.8622230472936 63 130 0 
pipe4-454 J-80 J-50 90.6680562966932 125 130 0 
pipe4-305 J-262 J-2 87.4611091730412 63 130 0 
pipe4-173 J-263 J-264 79.4418486747211 63 130 0 
pipe4-363 J-18 J-265 88.3688071525525 125 130 0 
pipe4-308 J-30 J-266 87.9864814328737 63 130 0 
pipe4-231 J-267 J-256 88.3083577585758 63 130 0 
pipe4-24 J-202 J-268 88.4230054366408 63 130 0 
pipe4-167 J-148 J-269 88.6009410343722 63 130 0 
pipe4-456 J-30 J-195 89.2122490769096 125 130 0 
pipe4-258 J-123 J-167 89.3386431293735 63 130 0 
pipe4-306 J-270 J-271 91.1695985130257 63 130 0 
pipe4-25 J-113 J-272 92.2543246654328 63 130 0 
pipe4-255 J-273 J-190 88.9364269300275 63 130 0 
pipe4-472 J-111 J-274 90.4357939209199 125 130 0 
pipe4-461 J-147 J-275 98.8871747501092 125 130 0 
pipe4-302 J-207 J-270 91.154817481245 63 130 0 
pipe4-373 J-228 J-276 91.5095164167945 125 130 0 
pipe4-272 J-277 J-58 95.9675883484208 63 130 0 
pipe4-467 J-175 J-147 91.7591997365595 125 130 0 
pipe4-28 J-203 J-186 110.015314358512 63 130 0 
pipe4-176 J-26 J-281 128.383348660124 63 130 0 
pipe4-228 J-217 J-282 92.8680855646874 63 130 0 
pipe4-164 J-283 J-284 93.0383609778629 63 130 0 
pipe4-29 J-285 J-286 93.1276232646934 63 130 0 
pipe4-30 J-288 J-24 96.1379893403214 63 130 0 
pipe4-77 J-123 J-289 134.356613279941 63 130 0 
pipe4-212 J-290 J-291 93.6417313740909 63 130 0 
pipe4-32 J-181 J-292 94.7853871197725 63 130 0 
pipe4-287 J-77 J-19 96.542166817633 63 130 0 
pipe4-33 J-188 J-451 95.857955695217 63 130 0 
pipe4-34 J-293 J-294 96.3117262443118 63 130 0 
pipe4-35 J-103 J-295 96.5960981770021 63 130 0 