[TITLE]
Scenario: NEW MP AVG.FLOW +F.F  J 870 &  J598 
Date: 10/01/2018 2:58:30 PM 

[CURVES]
;PUMP:
PMP-1 345.208333333333 44
;EFFICIENCY:
PMP-1E 0 100

[JUNCTIONS]
J-1 1997.81457519531 0 
J-2 2003.18859863281 0 
J-3 1992.13757324219 0 
J-4 2007.78308105469 0 
J-5 1998.5 0 
J-6 2003.69409179688 0 
J-7 2001.25537109375 0 
J-8 1995.14660644531 0 
J-9 1999.49829101563 0 
J-10 2001.07482910156 0 
J-11 2016.66088867188 0 
J-12 2015.36865234375 0 
J-13 2012.01599121094 0 
J-14 2006.64990234375 0 
J-15 2002.42236328125 0 
J-16 1997.92504882813 0 
J-17 1997.01977539063 0 
J-18 1994.52294921875 0 
J-19 2000.18286132813 0 
J-20 2020.7216796875 0 
J-21 1994.01989746094 0 
J-22 2007 0 
J-23 1998.44152832031 0 
J-24 2015.08032226563 0 
J-25 2004.32507324219 0 
J-26 2012.15808105469 0 
J-27 2007.96154785156 0 
J-28 1996.50805664063 0 
J-29 1992.62426757813 0 
J-30 2008.01721191406 0 
J-31 2006.96179199219 0 
J-32 1997.86279296875 0 
J-33 1997.87512207031 0 
J-34 1998.70642089844 0 
J-35 1996.54443359375 0 
J-36 2015.74255371094 0 
J-37 1995.5 0 
J-38 2002.24914550781 0 
J-39 2007.48645019531 0 
J-40 2013.17211914063 0 
J-41 1994.58251953125 0 
J-42 2006.14672851563 0 
J-43 2003.06372070313 0 
J-44 2009.76550292969 0 
J-45 1997.44775390625 0 
J-46 2014.21594238281 0 
J-47 2006.10375976562 0 
J-48 2021.06860351563 0 
J-49 1992.0576171875 0 
J-50 2002.76672363281 0 
J-51 2012.71899414063 0 
J-52 2013.30615234375 0 
J-53 2006.17016601563 0 
J-54 1988.66137695313 0 
J-55 1994.68090820313 0 
J-56 1996.35791015625 0 
J-57 1998.63293457031 0 
J-58 1996.83679199219 0 
J-59 2015.21606445313 0 
J-60 1995.5 0 
J-61 2008.16149902344 0 
J-62 2000.99877929688 0 
J-63 2009.90197753906 0 
J-64 2006.15222167969 0 
J-65 2007.908203125 0 
J-66 2007.88061523438 0 
J-67 2003.251953125 0 
J-68 2001.48962402344 0 
J-69 2003.14807128906 0 
J-70 1991.96997070313 0 
J-71 2015.48620605469 0 
J-72 2017.47338867188 0 
J-74 2004.32946777344 0 
J-75 2010.56616210938 0 
J-76 2004.84387207031 0 
J-77 1995.17883300781 0 
J-78 2003.96374511719 0 
J-79 2002.08850097656 0 
J-80 2016.77746582031 0 
J-81 2015.39904785156 0 
J-82 2003.63732910156 0 
J-83 2007.13269042969 0 
J-84 1995.75280761719 0 
J-85 1997 0 
J-86 1999.24865722656 0 
J-87 2003.78210449219 0 
J-88 2011.22619628906 0 
J-89 2005.23486328125 0 
J-90 2017.27526855469 0 
J-91 1993 0 
J-93 2006.47705078125 0 
J-94 2013.34118652344 0 
J-95 2011.43713378906 0 
J-96 1996.75512695313 0 
J-97 2001.34326171875 0 
J-98 1997 0 
J-99 1998.00634765625 0 
J-100 1994.5 0 
J-101 1992.67712402344 0 
J-102 1989.84619140625 0 
J-103 2008.10705566406 0 
J-104 2020.513671875 0 
J-105 2003.58532714844 0 
J-106 1997 0 
J-107 2015.16577148438 0 
J-109 2003 0 
J-110 1989.73010253906 0 
J-111 1998.728515625 0 
J-112 1997.9169921875 0 
J-113 1994.61267089844 0 
J-114 1995.21215820313 0 
J-115 2012.50549316406 0 
J-116 2012.81909179688 0 
J-117 2006.27197265625 0 
J-118 1992.41467285156 0 
J-119 1998.6904296875 0 
J-120 1996.77465820313 0 
J-121 2020.365234375 0 
J-122 2008.34912109375 0 
J-123 1999.64367675781 0 
J-124 2008.45751953125 0 
J-125 2007.28442382813 0 
J-126 1993.62170410156 0 
J-127 1997 0 
J-128 1996.11596679688 0 
J-129 2007.97509765625 0 
J-130 1998.89929199219 0 
J-131 1992.80981445313 0 
J-132 1995.5 0 
J-133 1993.64721679688 0 
J-134 1999.19812011719 0 
J-135 2020.34252929688 0 
J-137 2007.98559570313 0 
J-138 2017.86340332031 0 
J-139 2002.31896972656 0 
J-140 2008.927734375 0 
J-141 1992.42993164062 0 
J-142 2013.40246582031 0 
J-143 1996.5 0 
J-144 2003.66638183594 0 
J-145 1997.69519042969 0 
J-146 2016.00610351562 0 
J-147 2009.982421875 0 
J-148 2015.37951660156 0 
J-149 2018.90014648438 0 
J-150 2011.21936035156 0 
J-151 2013.46423339844 0 
J-152 2008.75268554688 0 
J-153 2005.89221191406 0 
J-154 2004.244140625 0 
J-156 1996.98522949219 0 
J-157 2007.75 0 
J-158 2011.9140625 0 
J-159 2005.5 0 
J-160 2006.53381347656 0 
J-161 2012.51013183594 0 
J-162 1997.55749511719 0 
J-163 2016.01806640625 0 
J-164 1995.16101074219 0 
J-165 2006.45971679688 0 
J-166 2000.83703613281 0 
J-167 2006.4873046875 0 
J-168 1992.3935546875 0 
J-170 1999.5 0 
J-171 1995.58361816406 0 
J-172 2012.37854003906 0 
J-173 2020.70764160156 0 
J-174 2017.60046386719 0 
J-175 2015.63659667969 0 
J-176 2006.95642089844 0 
J-177 1996.5 0 
J-178 1999.5205078125 0 
J-179 1994.35119628906 0 
J-180 1999 0 
J-181 2000.07397460938 0 
J-182 2005.99853515625 0 
J-183 1994.16845703125 0 
J-184 2014.67456054688 0 
J-185 1993.66467285156 0 
J-186 1999 0 
J-187 2015.85656738281 0 
J-188 1986.4462890625 0 
J-189 1996.84130859375 0 
J-190 1990.71484375 0 
J-191 2009.03295898438 0 
J-192 2007.52563476563 0 
J-193 1992.47998046875 0 
J-194 2007.48278808594 0 
J-195 1996.0478515625 0 
J-196 1996.77905273438 0 
J-197 2015.70727539063 0 
J-198 2002.49169921875 0 
J-199 2018.98364257813 0 
J-200 1998.23937988281 0 
J-201 1998.892578125 0 
J-202 1994.615234375 0 
J-203 2006.56994628906 0 
J-204 2007.06335449219 0 
J-205 2001.72839355469 0 
J-206 1995.30090332031 0 
J-207 2001.23486328125 0 
J-208 1995.95373535156 0 
J-209 2007.98022460938 0 
J-210 1997.79028320313 0 
J-212 1992.5546875 0 
J-213 2009.43212890625 0 
J-214 2017.77465820313 0 
J-215 2013.45336914063 0 
J-216 2012.24938964844 0 
J-217 1997.7490234375 0 
J-218 2007.49450683594 0 
J-219 2007.54321289062 0 
J-220 1999 0 
J-221 2003.35192871094 0 
J-222 2008.18127441406 0 
J-223 1988.51989746094 0 
J-224 1996.69006347656 0 
J-225 2002.97241210938 0 
J-226 1997.71728515625 0 
J-228 2012.46301269531 0 
J-229 2012.96215820313 0 
J-230 2008.52038574219 0 
J-231 2011.56481933594 0 
J-232 2007.5673828125 0 
J-233 2003.47619628906 0 
J-234 2017.14624023437 0 
J-235 1993.5 0 
J-236 2001.43957519531 0 
J-237 2006.24792480469 0 
J-238 2006.54443359375 0 
J-239 1998.86730957031 0 
J-240 1997.8115234375 0 
J-241 1995 0 
J-242 2021.4638671875 0 
J-243 2010.3447265625 0 
J-244 1998.37536621094 0 
J-245 2000.86560058594 0 
J-246 2009.06091308594 0 
J-247 1996.9423828125 0 
J-248 1998.5546875 0 
J-249 1999.27075195313 0 
J-250 2009.48779296875 0 
J-251 2012.71398925781 0 
J-252 2000.91833496094 0 
J-253 1998.32421875 0 
J-254 1995.42175292969 0 
J-255 2003.08728027344 0 
J-256 2020.81555175781 0 
J-257 2007.32788085938 0 
J-258 1996.1005859375 0 
J-259 2004.91882324219 0 
J-260 2009.14721679687 0 
J-261 1998.68505859375 0 
J-262 1990.56530761719 0 
J-263 1988.87536621094 0 
J-264 2001.81201171875 0 
J-265 2008.39562988281 0 
J-266 2005.45935058594 0 
J-267 1997.5966796875 0 
J-268 1995.73718261719 0 
J-269 2006.51928710937 0 
J-270 2006.5380859375 0 
J-271 2008.34802246094 0 
J-272 2012.55798339844 0 
J-273 1994.88989257813 0 
J-274 1996.33435058594 0 
J-275 1996.48010253906 0 
J-276 2007.83093261719 0 
J-277 2000.97741699219 0 
J-278 2007.33203125 0 
J-279 1995.45471191406 0 
J-280 2017 0 
J-281 2003.34619140625 0 
J-282 2008.12878417969 0 
J-283 1992.40734863281 0 
J-284 1994.67797851563 0 
J-285 2000.39465332031 0 
J-286 1995.85693359375 0 
J-287 1991.3681640625 0 
J-288 2012.82690429688 0 
J-289 2017.80114746094 0 
J-290 2000.38610839844 0 
J-291 2009.67700195313 0 
J-292 1992.33386230469 0 
J-293 2010 0 
J-294 1999.50915527344 0 
J-295 1990 0 
J-296 1989.11596679688 0 
J-297 2001.04357910156 0 
J-298 2005.13256835938 0 
J-299 2007.57666015625 0 
J-300 2012.83361816406 0 
J-301 2008.46215820313 0 
J-302 2007.56616210938 0 
J-303 2007.20056152344 0 
J-304 1991.87829589844 0 
J-305 2005.10278320312 0 
J-306 1999.07153320313 0 
J-307 2003.32897949219 0 
J-308 1996.67492675781 0 
J-309 1995 0 
J-310 1997.4013671875 0 
J-311 1996.98486328125 0 
J-312 2014.25109863281 0 
J-313 2017.93518066406 0 
J-314 1999 0 
J-315 2008.98791503906 0 
J-316 1992.35888671875 0 
J-317 2004.86938476563 0 
J-318 1996.5 0 
J-319 2004.90393066406 0 
J-320 1999.3720703125 0 
J-321 2007.5 0 
J-322 2009.95837402344 0 
J-323 1997.73034667969 0 
J-324 1994.86755371094 0 
J-325 2017.29016113281 0 
J-326 2000.47509765625 0 
J-327 2002.20617675781 0 
J-328 2010.5 0 
J-329 2005.3740234375 0 
J-330 2008.87646484375 0 
J-331 1988.59680175781 0 
J-332 1990.56579589844 0 
J-333 2002.037109375 0 
J-334 1995.28625488281 0 
J-335 2021.03784179688 0 
J-336 1997.73657226563 0 
J-337 2007.28247070313 0 
J-338 2010.76879882813 0 
J-339 1999.07592773438 0 
J-340 2019.10314941406 0 
J-341 1994.22644042969 0 
J-342 1993.26306152344 0 
J-343 2006.58715820313 0 
J-344 1998.95959472656 0 
J-345 2002.86682128906 0 
J-346 1998.669921875 0 
J-347 1999.671875 0 
J-348 1996 0 
J-349 2003.0166015625 0 
J-350 2002.5 0 
J-351 1999.5712890625 0 
J-352 1997.76416015625 0 
J-353 1996.2890625 0 
J-354 2003.87744140625 0 
J-355 2013.34619140625 0 
J-356 1992.36303710937 0 
J-357 1999.17651367188 0 
J-358 1996.19030761719 0 
J-359 1999.99389648438 0 
J-360 2009.48071289063 0 
J-361 1999 0 
J-362 2000.71362304688 0 
J-363 2007.15124511719 0 
J-364 2014.373046875 0 
J-365 1999.16076660156 0 
J-366 2019.94152832031 0 
J-367 2000.53820800781 0 
J-368 1997.47778320313 0 
J-369 1996.83557128906 0 
J-370 1989.7099609375 0 
J-371 2000.54748535156 0 
J-372 1996.70471191406 0 
J-373 2010.56335449219 0 
J-374 2018.93566894531 0 
J-375 1998.23693847656 0 
J-376 1999.50769042969 0 
J-377 2022.86157226562 0 
J-378 1991.24182128906 0 
J-379 2004.5 0 
J-380 1997.70471191406 0 
J-381 1987.39453125 0 
J-382 1995.642578125 0 
J-383 1998.45129394531 0 
J-384 2000.64123535156 0 
J-385 2008.15991210938 0 
J-386 2000.5 0 
J-387 2000.56420898438 0 
J-388 1997.50817871094 0 
J-389 1999.17309570313 0 
J-390 2009.96459960938 0 
J-391 2006.53686523438 0 
J-393 1993.67810058594 0 
J-394 2005.25659179688 0 
J-395 2006.44226074219 0 
J-396 2015.5 0 
J-397 1996.47119140625 0 
J-398 1995.26794433594 0 
J-399 1992.33056640625 0 
J-400 2002.78259277344 0 
J-401 1998.59643554688 0 
J-402 1997.64916992188 0 
J-403 1989.40002441406 0 
J-404 1993.49951171875 0 
J-405 2011.81164550781 0 
J-406 2005.5 0 
J-407 2007.67590332031 0 
J-408 2007.54931640625 0 
J-409 1990.30139160156 0 
J-410 1989.06323242188 0 
J-411 2000.47399902344 0 
J-413 2007.14416503906 0 
J-414 1996.06677246094 0 
J-415 2006.16577148438 0 
J-416 2000.07751464844 0 
J-417 2007.07885742188 0 
J-418 1996.09301757813 0 
J-419 2004.88952636719 0 
J-420 2004.66076660156 0 
J-421 2002.68908691406 0 
J-422 2008 0 
J-424 1995.5 0 
J-425 2007.67749023438 0 
J-426 2013.98986816406 0 
J-427 2004.46691894531 0 
J-428 2007.06323242188 0 
J-429 2001.63696289063 0 
J-430 1996.57885742188 0 
J-431 1995.32604980469 0 
J-432 2002.33703613281 0 
J-433 1999.3896484375 0 
J-434 1992.796875 0 
J-435 1998.287109375 0 
J-436 2020.27819824219 0 
J-437 1997.39245605469 0 
J-438 2004.46325683594 0 
J-439 2017.71838378906 0 
J-441 2002.78137207031 0 
J-442 1990.91552734375 0 
J-443 1993.98937988281 0 
J-444 2005.16137695313 0 
J-445 1997.8828125 0 
J-446 1994.90014648438 0 
J-447 1995.09301757812 0 
J-448 1995.81811523438 0 
J-449 1999.19946289063 0 
J-450 2020.75341796875 0 
J-451 2013.88317871094 0 
J-452 1990.24011230469 0 
J-453 1994.84619140625 0 
J-454 1996.31982421875 0 
J-455 1992.5 0 
J-456 1996.77709960938 0 
J-457 1998.13647460937 0 
J-458 1992.17114257812 0 
J-459 1994.66076660156 0 
J-460 1993 0 
J-461 1992.99792480469 0 
J-462 2007.87609863281 0 
J-463 2007.5 0 
J-464 2013.07202148438 0 
J-465 2003.52905273438 0 
J-466 2005.5478515625 0 
J-467 1997.56237792969 0 
J-468 1995.97497558594 0 
J-469 1995.32019042969 0 
J-470 2013.48168945313 0 
J-471 1990.85205078125 0 
J-472 1998.77673339844 0 
J-473 2001.20288085938 0 
J-474 2010.66772460938 0 
J-475 2001.60656738281 0 
J-476 2011.59045410156 0 
J-477 2016.48681640625 0 
J-478 2000.45104980469 0 
J-479 1996.216796875 0 
J-480 1998.27758789063 0 
J-481 2005.97546386719 0 
J-482 1999.2421875 0 
J-483 1990 0 
J-484 1989 0 
J-485 2001.85009765625 0 
J-486 1998.89685058594 0 
J-487 1996.30505371094 0 
J-488 2005.09936523438 0 
J-489 2002.26062011719 0 
J-490 2002.13049316406 0 
J-491 2002.46203613281 0 
J-492 1996.04626464844 0 
J-493 2001.85583496094 0 
J-494 2002.5 0 
J-495 2000.57690429688 0 
J-496 2008.69323730469 0 
J-497 2021.26928710938 0 
J-498 1996.11730957031 0 
J-499 2000.31103515625 0 
J-500 1999.89379882813 0 
J-501 2015.57434082031 0 
J-502 2004.69982910156 0 
J-504 1997.50231933594 0 
J-505 1995.73608398438 0 
J-506 2000.34887695313 0 
J-507 1999.02575683594 0 
J-508 2010.62048339844 0 
J-509 2006.58630371094 0 
J-510 2000.6552734375 0 
J-511 1998.97741699219 0 
J-512 2001.79699707031 0 
J-513 2003.66772460938 0 
J-514 1998.23937988281 0 
J-515 1995.81628417969 0 
J-516 1995.85986328125 0 
J-517 2003.5 0 
J-518 2003.99145507813 0 
J-519 2007.064453125 0 
J-520 1998.09130859375 0 
J-521 1993.38134765625 0 
J-522 1996.97302246094 0 
J-523 2000.54528808594 0 
J-524 2015.31848144531 0 
J-525 2004.21606445313 0 
J-526 2009 0 
J-527 1997.74658203125 0 
J-528 1995.10876464844 0 
J-529 2003.20983886719 0 
J-530 2012.62109375 0 
J-531 1999.36499023438 0 
J-532 2000.63208007813 0 
J-533 2007.54211425781 0 
J-534 2012.06201171875 0 
J-535 2007.51171875 0 
J-536 2017.31982421875 0 
J-537 1998.94091796875 0 
J-538 2012.01696777344 0 
J-539 1995.41076660156 0 
J-540 1990 0 
J-541 1996.57385253906 0 
J-542 1996.92517089844 0 
J-543 1998.19567871094 0 
J-544 1988.57080078125 0 
J-545 1991.14025878906 0 
J-546 2021.12634277344 0 
J-547 1998.21997070313 0 
J-548 2021.38342285156 0 
J-549 2001.43737792969 0 
J-550 1995.30053710938 0 
J-551 2008.08129882813 0 
J-552 2007.02954101563 0 
J-553 2019.21569824219 0 
J-554 2008.32702636719 0 
J-555 1997.19653320313 0 
J-556 1995.73352050781 0 
J-557 1998.30615234375 0 
J-558 2021.39111328125 0 
J-559 2012.86315917969 0 
J-560 2004.80078125 0 
J-561 2007.06420898438 0 
J-562 1996.21508789063 0 
J-563 1994.6474609375 0 
J-564 1992.79675292969 0 
J-565 2005.61364746094 0 
J-566 2006.19592285156 0 
J-567 1997.68493652344 0 
J-568 1995.40661621094 0 
J-569 1996.25744628906 0 
J-570 1997.63208007813 0 
J-571 2006.5830078125 0 
J-572 2013.98022460938 0 
J-573 1998.48352050781 0 
J-574 2009.66455078125 0 
J-575 1994.76770019531 0 
J-576 2000.92041015625 0 
J-577 2000.71374511719 0 
J-578 1992.04162597656 0 
J-579 2008.92333984375 0 
J-580 2015.63195800781 0 
J-581 2004.87585449219 0 
J-582 2008 0 
J-583 2000.85083007813 0 
J-584 1998.96960449219 0 
J-585 1996.615234375 0 
J-586 1995.18469238281 0 
J-587 2002.87854003906 0 
J-588 2004.85949707031 0 
J-589 2008.51843261719 0 
J-590 1990.46276855469 0 
J-591 2007.61450195312 0 
J-592 2012.5 0 
J-593 1997.10046386719 0 
J-594 2006.60534667969 0 
J-595 1995.28662109375 0 
J-596 1995.76354980469 0 
J-597 2011.70654296875 0 
J-598 2023.12292480469 0 
J-599 2000.96044921875 0 
J-600 2003.15698242188 0 
J-601 1991.34387207031 0 
J-602 2018.84716796875 0 
J-603 2008.88342285156 0 
J-604 2003.67932128906 0 
J-605 2003.20007324219 0 
J-606 2011.66650390625 0 
J-607 1995.65966796875 0 
J-608 2000.26806640625 0 
J-609 2007.03381347656 0 
J-610 2012.44689941406 0 
J-611 2000.04174804688 0 
J-612 2007.19555664063 0 
J-613 1996.11022949219 0 
J-614 1995.93444824219 0 
J-615 1995.5 0 
J-616 2005.85974121094 0 
J-617 2010.32751464844 0 
J-618 1996.56030273438 0 
J-619 1995.16040039063 0 
J-620 1999.19897460938 0 
J-621 1996.01953125 0 
J-622 2001.61120605469 0 
J-623 2012.41650390625 0 
J-624 2002.45556640625 0 
J-625 2000.68078613281 0 
J-626 1992.96350097656 0 
J-627 2007.84436035156 0 
J-628 2007.91076660156 0 
J-629 1999.02661132813 0 
J-630 2006.6640625 0 
J-631 1994.20349121094 0 
J-632 1993.44287109375 0 
J-633 1992.84997558594 0 
J-634 2008.15625 0 
J-635 1995.67077636719 0 
J-636 1993.13354492188 0 
J-637 1993.47741699219 0 
J-638 1998.97387695313 0 
J-639 2009.97106933594 0 
J-640 2004.12768554688 0 
J-641 2003.1630859375 0 
J-642 1997.42614746094 0 
J-643 2008 0 
J-644 2000.53552246094 0 
J-645 2000.5 0 
J-646 2007.09008789063 0 
J-647 2001.74792480469 0 
J-648 1994.57556152344 0 
J-650 2001.81274414063 0 
J-651 2001.03649902344 0 
J-652 2015.23608398438 0 
J-653 2004.87145996094 0 
J-654 2004.63452148438 0 
J-655 2003.86962890625 0 
J-656 2003.82177734375 0 
J-657 2006.84851074219 0 
J-658 2007.54992675781 0 
J-659 2012.87731933594 0 
J-660 2007.31555175781 0 
J-661 1996.271484375 0 
J-662 1998.17700195312 0 
J-663 1995.68627929688 0 
J-664 1993.77270507813 0 
J-665 1990.21618652344 0 
J-666 1999.61389160156 0 
J-667 1990 0 
J-668 1991.80261230469 0 
J-669 2000.8056640625 0 
J-670 1991.94213867188 0 
J-671 2014.60046386719 0 
J-672 1995 0 
J-673 2006.66235351563 0 
J-674 2003.2998046875 0 
J-675 1996.78063964844 0 
J-676 2008.39611816406 0 
J-677 1995.904296875 0 
J-678 2004.41027832031 0 
J-679 2005.03332519531 0 
J-680 2020.525390625 0 
J-681 2020.78820800781 0 
J-682 2000.83264160156 0 
J-683 2012.5 0 
J-684 2005.98522949219 0 
J-685 2004.43908691406 0 
J-686 1998.16052246094 0 
J-688 2014.13452148438 0 
J-689 1995.53540039063 0 
J-690 2008.50329589844 0 
J-691 2000.09545898438 0 
J-692 1990.74133300781 0 
J-693 2007.88879394531 0 
J-694 1998.9423828125 0 
J-695 2006.44360351562 0 
J-696 1998.96264648438 0 
J-697 1992.5 0 
J-698 1991.85681152344 0 
J-699 1996.90161132813 0 
J-700 2006.33251953125 0 
J-701 1997 0 
J-702 1990.69189453125 0 
J-703 2008.19714355469 0 
J-704 2007.03833007813 0 
J-705 2007.81225585938 0 
J-707 2003.23706054688 0 
J-708 1995.30493164063 0 
J-709 2007.98046875 0 
J-710 2001.33728027344 0 
J-711 2001.3232421875 0 
J-712 2019.85546875 0 
J-713 2014.87731933594 0 
J-714 2015.69775390625 0 
J-715 2016.59509277344 0 
J-716 2016.39782714844 0 
J-717 2017.41101074219 0 
J-718 2012.5 0 
J-719 2012.33337402344 0 
J-720 2009.61572265625 0 
J-721 2005.38464355469 0 
J-722 2002.28527832031 0 
J-723 2000.5 0 
J-724 1997.09924316406 0 
J-725 1995.85864257813 0 
J-726 1996.36206054688 0 
J-727 1997.60595703125 0 
J-728 1997.822265625 0 
J-729 2015.69506835938 0 
J-730 2000.83288574219 0 
J-731 2004.349609375 0 
J-732 2001.97375488281 0 
J-733 2004.41088867188 0 
J-734 2002.677734375 0 
J-735 2001.90930175781 0 
J-736 2004.83215332031 0 
J-737 2005.14465332031 0 
J-738 2007.61047363281 0 
J-739 2005.59155273438 0 
J-740 2006.81176757813 0 
J-741 1992.85095214844 0 
J-742 1990.42700195313 0 
J-743 1993.48681640625 0 
J-744 1988.3583984375 0 
J-745 1990.52282714844 0 
J-746 1993.73217773438 0 
J-747 1995.30847167969 0 
J-748 1995.76684570313 0 
J-749 1997.32702636719 0 
J-750 1998.55114746094 0 
J-751 1995.09875488281 0 
J-752 1996.39562988281 0 
J-753 1996.00158691406 0 
J-754 1994.7177734375 0 
J-755 1998.64709472656 0 
J-756 1995.21728515625 0 
J-757 1990.66711425781 0 
J-758 1999.22314453125 0 
J-759 2002.60595703125 0 
J-760 2010.43798828125 0 
J-761 2005.48400878906 0 
J-762 1999.33093261719 0 
J-763 1997.9228515625 0 
J-764 1999.6357421875 0 
J-765 1999.69445800781 0 
J-766 2007.85009765625 0 
J-767 1994.51806640625 0 
J-769 1994.5859375 0 
J-770 2008.5 0 
J-771 2012.470703125 0 
J-772 2017.97241210938 0 
J-773 2003.13513183594 0 
J-774 1997.82153320313 0 
J-775 1998.91967773438 0 
J-776 1999.26586914063 0 
J-777 1995.5 0 
J-778 1996.72766113281 0 
J-779 1996.85522460938 0 
J-780 1996.91027832031 0 
J-781 2003.14416503906 0 
J-782 2005.89379882813 0 
J-783 2007.46020507813 0 
J-784 2010.19799804688 0 
J-785 2011.27380371094 0 
J-786 2000.3037109375 0 
J-787 2000.55114746094 0 
J-788 1996.58715820313 0 
J-789 1994.91333007813 0 
J-790 1996.36218261719 0 
J-791 1997.93151855469 0 
J-792 1997.84375 0 
J-793 1994.62805175781 0 
J-794 1995.7841796875 0 
J-795 1997.80688476563 0 
J-796 1999.84997558594 0 
J-797 2002.43041992188 0 
J-798 2004.17614746094 0 
J-799 2007.5 0 
J-800 2006.51257324219 0 
J-801 2006.43542480469 0 
J-802 1998.53576660156 0 
J-803 1996.17102050781 0 
J-804 1995.5 0 
J-805 2003.44274902344 0 
J-806 2003.61682128906 0 
J-807 1995.08459472656 0 
J-808 1995.5 0 
J-809 1995.5 0 
J-810 1995.63720703125 0 
J-811 1996 0 
J-812 1996.45446777344 0 
J-813 1997.34985351563 0 
J-814 1998.23193359375 0 
J-815 1999.33239746094 0 
J-816 2000.50659179688 0 
J-817 2002.56567382813 0 
J-818 2007.35815429688 0 
J-819 2010.37268066406 0 
J-820 2010.44763183594 0 
J-821 2010.5 0 
J-822 2010 0 
J-823 2008.10595703125 0 
J-824 2006 0 
J-825 2006.47192382813 0 
J-826 2006.11218261719 0 
J-827 2005.06689453125 0 
J-828 2002.28186035156 0 
J-829 2000.33068847656 0 
J-831 1999.06506347656 0 
J-832 1997.27087402344 0 
J-833 1996.36145019531 0 
J-834 1995.77941894531 0 
J-835 1995.5 0 
J-836 1995.5 0 
J-837 1995.49084472656 0 
J-838 1996.931640625 0 
J-839 2000.89819335937 0 
J-840 2002.84851074219 0 
J-841 2005.49658203125 0 
J-842 2007.56970214844 0 
J-843 2010.29577636719 0 
J-844 2013.86755371094 0 
J-845 2019.93395996094 0 
J-846 2013.37768554688 0 
J-847 2015 0 
J-848 2010.38098144531 0 
J-849 1992.5 0 
J-850 1992.85620117188 0 
J-851 1992.763671875 0 
J-852 1992.45666503906 0 
J-853 2004.23547363281 0 
J-854 2004.48315429688 0 
J-855 2003.24047851563 0 
J-856 2004.82580566406 0 
J-857 2005.0068359375 0 
J-858 2006.15881347656 0 
J-859 1998.22338867188 0 
J-860 1990 0 
J-861 1992.44360351563 0 
J-862 1995.07958984375 0 
J-863 1992.91296386719 0 
J-864 1994.54296875 0 
J-865 1995.47326660156 0 
J-866 1996.8427734375 0 
J-867 2000.63977050781 0 
J-868 2003.04626464844 0 
J-869 1995.8310546875 0 
J-870 2022.76452636719 0 
J-871 2007.20080566406 0 
J-872 2007.81689453125 0 
J-873 2007.49206542969 0 
J-874 2006.63049316406 0 
J-875 2006.50769042969 0 
J-876 2006.47424316406 0 
J-877 2006.46850585938 0 
J-878 2006.86584472656 0 
J-879 2005.9130859375 0 
J-880 2006.3720703125 0 
J-881 2006 0 
J-882 2007.62219238281 0 
J-883 2009.85217285156 0 
J-884 2009.46215820313 0 
J-885 2018.02880859375 0 
J-886 2015.81555175781 0 
J-887 2011.32983398438 0 
J-888 2013.02587890625 0 
J-889 2013.82348632813 0 
J-890 2012.39086914063 0 
J-891 2010.58740234375 0 
J-892 2010.34936523438 0 
J-893 2010.32690429687 0 
J-894 2010.29833984375 0 
J-895 2011.25988769531 0 
J-896 2012.19177246094 0 
J-897 2012.77697753906 0 
J-898 2007.61486816406 0 
J-899 2006 0 
J-900 2006.40930175781 0 
J-901 2006.5 0 
J-902 2007.5 0 
J-903 2007.49865722656 0 
J-904 2006.59326171875 0 
J-905 2004.75280761719 0 
J-906 2003.82409667969 0 
J-907 2004 0 
J-908 2003.32556152344 0 
J-909 2002.5107421875 0 
J-913 2000.65649414063 0 
J-914 2000.76611328125 0 
J-915 1997.63891601563 0 
J-916 1996.51037597656 0 
J-917 1995.43103027344 0 
J-918 1995 0 
J-919 1994.95861816406 0 
J-920 1997.68310546875 0 
J-921 1996.73181152344 0 
J-922 1995.56762695313 0 
J-923 1995.28137207031 0 
J-924 1994.53576660156 0 
J-925 1991.31896972656 0 
J-926 1994.90246582031 0 
J-927 2001.66528320313 0 
J-928 1995.51245117188 0 
J-929 1997.34655761719 0 
J-930 1994.7392578125 0 
J-931 1992.16394042969 0 
J-932 1996.95166015625 0 
J-933 2001.11926269531 0 
J-934 2001.69213867188 0 
J-935 2006.35180664063 0 
J-936 2006.42700195313 0 
J-937 2008.91796875 0 
J-938 2004.97216796875 0 
J-939 2003.95776367188 0 
J-940 1999.54870605469 0 
J-941 2000.90710449219 0 
J-942 1992.55078125 0 
J-943 2002.880859375 0 
J-944 2008.44934082031 0 
J-945 2006.80236816406 0 
J-946 2007.29553222656 0 
J-947 2009.64111328125 0 
J-948 2015.57495117188 0 
J-949 2015.67297363281 0 
J-950 2014.13989257813 0 
J-951 2014.76843261719 0 
J-952 2009.41162109375 0 
J-953 2008.6708984375 0 
J-954 2006.47802734375 0 
J-955 2005.20788574219 0 
J-956 2004.27270507813 0 
J-957 2004.5 0 
J-958 2007 0 
J-960 2003.70397949219 0 
J-961 2002.5 0 
J-962 2003.25988769531 0 
J-963 2008.95031738281 0 
J-964 1995.13134765625 0 
J-965 1995.16857910156 0 
J-966 1998.3125 0 
J-967 1997.57055664063 0 
J-968 1995.23364257813 0 
J-969 1991.58361816406 0 
J-970 1993.92749023438 0 
J-971 1993.78137207031 0 
J-972 2018.35522460938 0 
J-973 2019.498046875 0 
J-974 2020.93811035156 0 
J-975 2002.96264648437 0 
J-976 2001.47094726563 0 
J-977 2001.62622070312 0 
J-978 2000.5 0 
J-979 1999.60607910156 0 
J-980 2002.484375 0 
J-981 1992.33752441406 0 
J-982 1998.29296875 0 
J-983 1999.76220703125 0 
J-984 2008.2 0 
J-985 2008.84008789063 0 
J-986 2007.3896484375 0 
J-987 2006.61560058594 0 
J-988 2004.69384765625 0 
J-989 2005.53515625 0 
J-990 2004.73327636719 0 
J-991 2003.76867675781 0 
J-992 2003.50610351563 0 
J-993 2000.15649414063 0 
J-994 1999.14245605469 0 
J-995 1999.07873535156 0 
J-996 1998.88024902344 0 
J-997 2000.66442871094 0 
J-998 1998.88366699219 0 
J-999 1994.88317871094 0 
J-1000 1995.91479492188 0 
J-1001 1996.86999511719 0 
J-1002 1998.07702636719 0 
J-1003 1999.34289550781 0 
J-1004 2000.38452148438 0 
J-1005 2001.0654296875 0 
J-1006 2002.16748046875 0 
J-1007 1998.59252929687 0 
J-1008 1996.79565429687 0 
J-1010 2006.58447265625 0 
J-1011 2008.42944335938 0 
J-1012 1999.07751464844 0 
J-1013 1996.72705078125 0 
J-1014 1997.16003417969 0 
J-1015 1996.69055175781 0 
J-1016 1996.93908691406 0 
J-1017 1996.58801269531 0 
J-1018 1997.00183105469 0 
J-1019 1996.5 0 
J-1020 1996.5 0 
J-1021 1996.5 0 
J-1022 1996.443359375 0 
J-1023 1996.5 0 
J-1024 1996.5 0 
J-1025 1996.68676757813 0 
J-1026 1996.06945800781 0 
J-1027 1996.42138671875 0 
J-1028 1996.82177734375 0 
J-1029 1997.72033691406 0 
J-1030 1997.21936035156 0 
J-1031 2008.08923339844 0 
J-1032 2008.5 0 
J-1033 2008 0 
J-1034 2007.85375976563 0 
J-1035 2000.95739746094 0 
J-1036 2002.75695800781 0 
J-1037 2005.54479980469 0 
J-1038 2006.19763183594 0 
J-1039 2004.99291992188 0 
J-1040 2004.34216308594 0 
J-1041 2003.57080078125 0 
J-1042 2005.75903320313 0 
J-1043 1999.29748535156 0 
J-1044 2000.91638183594 0 
J-1045 2002.0029296875 0 
J-1046 2003.32592773438 0 
J-1047 2020.11059570313 0 
J-1048 2018.67993164063 0 
J-1049 2008.27880859375 0 
J-1050 2009.224609375 0 
J-1051 2008.67517089844 0 
J-1052 2009.2470703125 0 
J-1053 2004.77416992188 0 
J-1054 2003.94140625 0 
J-1055 2005.3671875 0 
J-1056 2021.46496582031 0 
J-1057 2006.54650878906 0 
J-1058 2007.13354492188 0 
J-1059 2006.5908203125 0 
J-1060 2007.09619140625 0 
J-1061 2007.15637207031 0 
J-1062 2007.16149902344 0 
J-1063 2007.33544921875 0 
J-1064 2007.12561035156 0 
J-1065 2006.88659667969 0 
J-1066 2007.06726074219 0 
J-1067 2007.08386230469 0 
J-1068 2007.33276367187 0 
J-1069 2007.083984375 0 
J-1070 2008.28552246094 0 
J-1071 2008.68627929688 0 
J-1072 2009.23950195313 0 
J-1073 2009.5 0 
J-1074 2009.90612792969 0 
J-1075 2009.77551269531 0 
J-1076 2009.85192871094 0 
J-1077 2009.71765136719 0 
J-1078 2007.98327636719 0 
J-1079 2007.88586425781 0 
J-1080 2007.56127929688 0 
J-1081 2007.55615234375 0 
J-1082 2007.58862304688 0 
J-1083 2007.64428710938 0 
J-1084 2007.97839355469 0 
J-1085 2017.98876953125 0 
J-1086 2017.90686035156 0 
J-1087 2015.90197753906 0 
J-1088 2015.75329589844 0 
J-1089 2015.69775390625 0 
J-1090 2015.22143554688 0 
J-1091 2014.76672363281 0 
J-1092 2012.34130859375 0 
J-1093 2011.69299316406 0 
J-1094 2011.43786621094 0 
J-1095 2010.95568847656 0 
J-1096 2012.91711425781 0 
J-1097 2013.40954589844 0 
J-1098 2013.99743652344 0 
J-1099 2014.71984863281 0 
J-1100 2015 0 
J-1101 2015.5 0 
J-1102 2004.35949707031 0 
J-1103 2003.7958984375 0 
J-1104 2004.5 0 
J-1105 1999.5 0 
J-1106 2001.53942871094 0 
J-1107 2000.873046875 0 
J-1108 2000.78271484375 0 
J-1109 2001.08337402344 0 
J-1110 2002.14697265625 0 
J-1111 2002.3173828125 0 
J-1112 2002.43273925781 0 
J-1113 2002.5 0 
J-1114 2003.34509277344 0 
J-1115 1995 0 
J-1116 1995.34899902344 0 
J-1117 1998.25024414063 0 
J-1118 1999.35632324219 0 
J-1119 2001.36889648438 0 
J-1120 2004.6025390625 0 
J-1121 2006.99719238281 0 
J-1122 2007.908203125 0 
J-1123 2005.57348632813 0 
J-1124 2004.84301757813 0 
J-1125 2002.39013671875 0 
J-1126 2003.57861328125 0 
J-1127 1995.24768066406 0 
J-1128 1994.83862304687 0 
J-1129 1993.380859375 0 
J-1130 1995.26025390625 0 
J-1131 1995.89855957031 0 
J-1132 1997.87609863281 0 
J-1133 1993.44287109375 0 
J-1134 1993.5 0 
J-1135 1994.68103027344 0 
J-1136 1993.84313964844 0 
J-1137 1990.96752929688 0 
J-1138 1990.77062988281 0 
J-1139 1990.3818359375 0 
J-1140 1992.8203125 0 
J-1141 1989.3017578125 0 
J-1142 1986.46069335938 0 
J-1143 2000.34094238281 0 
J-1144 2000.04565429688 0 
J-1145 1999.64294433594 0 
J-1146 1999.04577636719 0 
J-1147 2000.01721191406 0 
J-1148 2001.39538574219 0 
J-1149 2002.28210449219 0 
J-1150 1997.89135742188 0 
J-1151 1997.88696289063 0 
J-1152 1997.84240722656 0 
J-1153 1997.82421875 0 
J-1154 1997.84204101563 0 
J-1155 1998.02380371094 0 
J-1156 1997.9423828125 0 
J-1157 1998.26831054688 0 
J-1158 1998.37023925781 0 
J-1159 1998.40966796875 0 
J-1160 1995.99572753906 0 
J-1161 1998.48291015625 0 
J-1162 1996.95361328125 0 
J-1163 1999.77185058594 0 
J-1164 1998.32348632813 0 
J-1165 1997.8359375 0 
J-1166 1998.00268554687 0 
J-1167 2000.78967285156 0 
J-1168 2001.12353515625 0 
J-1169 2001.9619140625 0 
J-1170 2007.68408203125 0 
J-1171 2007.97314453125 0 
J-1172 2007.98278808594 0 
J-1173 2008.01257324219 0 
J-1174 2006 0 
J-1175 2006 0 