[TITLE]
Scenario: 50% flow 
Date: 07/10/2009 09:40:04 ุต 

[JUNCTIONS]
26 -222.13 0 
28 -221.37 0 
30 -220.75 0 
32 -219.23 0 
42 -218.25 0 
44 -217.79 0 

[RESERVOIRS]
24 -115 

[DEMANDS]
26 150 
28 180 
30 30 
32 100 
42 220 
44 240 

[EMITTERS]

[PIPES]
29 26 28 5100 900 0.012 0 
31 28 30 3700 800 0.012 0 
33 30 32 5200 800 0.012 0 
43 32 42 4500 700 0.012 0 
45 42 44 3400 600 0.012 0 
49 24 26 14500 1000 0.012 0 

[COORDINATES]
26 -30.2622857144068 6.58585714288353  
28 -16.2197142857792 6.58585714288353  
30 -5.44285714287892 6.69471428574111  
32 5.5517142857365 6.58585714288353  
42 18.3629875016143 6.83340205934434  
44 30.1747042410634 6.99089161587033  
24 -38.7531428572979 6.58585714288353  

[VERTICES]

[OPTIONS]
UNITS LPS 
TRIALS 40 
ACCURACY 0.001 
EMITTER 0.5 
SPECIFIC GRAVITY 0.998 
HEADLOSS C-M 
QUALITY NONE 

[TIMES]
REPORT START 0  
HYDRAULIC TIMESTEP 2  
DURATION 12  
QUALITY TIMESTEP 0  

