[TITLE]
Scenario: hour peak 
Date: 08/10/2014 12:07:19 PM 

[CURVES]
;PUMP:
PMP-1 200 66
;EFFICIENCY:
PMP-1E 0 100

[JUNCTIONS]
Second-98 500 0 
First-126 520 0 
First-127 520 0 
Second-15 512.227600097656 0 
Seventh-B-15 527.711669921875 0 
Seventh-B-16 527.711669921875 0 
Second-62 500.527587890625 0 
First-88 517.948364257813 0 
First-51 512.334167480469 0 
First-128 520 0 
First-191 520.139892578125 0 
First-192 520.139892578125 0 
First-217 520.959106445313 0 
First-218 520.959106445313 0 
First-129 520 0 
First-130 520 0 
Tenth-48 498.108123779297 0 
Ninth-A-27 490.66064453125 0 
AtTurra-312 448.156829833984 0 
AshShajara-178 442.532531738281 0 
Second-45 503.045318603516 0 
AshShajara-215 440.293151855469 0 
AshShajara-216 440.292449951172 0 
Six-B-59 536.225708007813 0 
Sixth-A-42 510 0 
AtTurra-431 444.827026367188 0 
AtTurra-289 449.188049316406 0 
ArRamtha-897 510 0 
AshShajara-56 442.303802490234 0 
AshShajara-54 442.305145263672 0 
Eighth-39 515.6015625 0 
Eighth-40 515.598937988281 0 
Ninth-B-8 509.257568359375 0 
Sixth-A-104 530 0 
AshShajara-309 440.111511230469 0 
Seventh-A-119 530 0 
Seventh-A-120 530 0 
Emrawa-22 410 0 
Emrawa-23 410 0 
Sixth-A-105 530 0 
Ethnaibeh-61 409.959228515625 0 
Eighth-94 512.923583984375 0 
Eighth-93 512.931030273438 0 
AshShajara-230 440.36279296875 0 
AshShajara-226 440.3662109375 0 
AtTurra-411 447.877075195313 0 
AshShajara-153 441.2939453125 0 
AshShajara-152 441.297607421875 0 
AtTurra-61 445.274108886719 0 
Fourth-1 500 0 
Fourth-2 500 0 
AtTurra-415 450 0 
Emrawa-109 410 0 
Emrawa-110 410 0 
Eighth-38 515.794982910156 0 
Eighth-37 515.791931152344 0 
Emrawa-38 410 0 
AtTurra-267 450 0 
AtTurra-384 453.246734619141 0 
AtTurra-382 453.266662597656 0 
Ethnaibeh-62 405.534973144531 0 
AtTurra-200 442.616088867188 0 
AtTurra-202 442.616790771484 0 
AtTurra-475 454.811553955078 0 
AtTurra-476 454.797454833984 0 
Ethnaibeh-74 409.312561035156 0 
AshShajara-240 440.29638671875 0 
AshShajara-323 440.245452880859 0 
AtTurra-226 450.517883300781 0 
Emrawa-65 410 0 
Emrawa-64 410 0 
Emrawa-14 410 0 
Emrawa-45 410 0 
Emrawa-95 410 0 
Emrawa-84 410 0 
Emrawa-46 410 0 
Eighth-97 512.831787109375 0 
AshShajara-329 436.319671630859 0 
Ethnaibeh-80 403.370361328125 0 
AshShajara-128 443.8193359375 0 
AtTurra-261 450.561187744141 0 
AtTurra-74 445.904052734375 0 
AtTurra-438 455.703460693359 0 
AtTurra-479 452.777099609375 0 
Emrawa-16 410 0 
ArRamtha-901 510 0 
AshShajara-377 431.550506591797 0 
AtTurra-215 450 0 
Ninth-A-121 501.031677246094 0 
Ninth-A-122 501.039337158203 0 
AtTurra-367 449.933532714844 0 
AtTurra-368 449.918731689453 0 
AtTurra-305 450 0 
AtTurra-171 450 0 
Ethnaibeh-89 406.738006591797 0 
AshShajara-306 440.157958984375 0 
Six-B-8 530 0 
Six-B-9 530 0 
AtTurra-290 449.741058349609 0 
AtTurra-287 449.744506835938 0 
ArRamtha-241 530 0 
AtTurra-274 450.407745361328 0 
Ninth-A-146 505.874755859375 0 
AtTurra-119 446.208221435547 0 
Ninth-A-9 490 0 
AshShajara-337 437.790863037109 0 
Ethnaibeh-16 410 0 
Ethnaibeh-18 410 0 
AtTurra-121 450 0 
Sixth-A-20 504.675994873047 0 
AtTurra-302 450 0 
AtTurra-299 450 0 
AtTurra-334 450 0 
AtTurra-117 446.186187744141 0 
ArRamtha-900 510 0 
AshShajara-375 437.271545410156 0 
AshShajara-376 437.2001953125 0 
AshShajara-50 444.564819335938 0 
AshShajara-162 440.769775390625 0 
AtTurra-123 446.153533935547 0 
Seventh-A-121 530 0 
AtTurra-344 450 0 
AshShajara-212 440.653259277344 0 
AtTurra-53 448.693206787109 0 
AtTurra-52 448.684967041016 0 
AtTurra-229 450 0 
AshShajara-325 440.218688964844 0 
AtTurra-211 446.686096191406 0 
Ethnaibeh-51 410 0 
Second-95 500 0 
Second-96 500 0 
Emrawa-37 410 0 
Emrawa-34 410 0 
Emrawa-123 410 0 
AshShajara-408 431.333465576172 0 
AshShajara-383 439.287231445313 0 
AtTurra-453 449.004821777344 0 
AtTurra-455 448.997680664063 0 
AtTurra-321 448.691619873047 0 
Ethnaibeh-54 410 0 
Six-B-54 534.80908203125 0 
AshShajara-208 440.808624267578 0 
Ethnaibeh-44 410 0 
AtTurra-246 450 0 
Eighth-109 517.761779785156 0 
Eighth-106 517.79833984375 0 
AshShajara-203 441.717254638672 0 
Ethnaibeh-36 410 0 
Third-68 508.500640869141 0 
Third-67 508.469665527344 0 
Emrawa-11 410 0 
AshShajara-425 422.509704589844 0 
AshShajara-288 443.423400878906 0 
Ninth-B-9 509.882843017578 0 
Eighth-36 515.80419921875 0 
Emrawa-111 410 0 
AtTurra-254 450 0 
AshShajara-57 444.796020507813 0 
AtTurra-36 444.040954589844 0 
Emrawa-10 410 0 
Emrawa-39 410 0 
Emrawa-121 410 0 
AtTurra-239 450 0 
AtTurra-165 450 0 
Emrawa-47 410 0 
AtTurra-351 447.785827636719 0 
AtTurra-350 447.799865722656 0 
Emrawa-12 410 0 
AtTurra-258 450 0 
AtTurra-35 444.087097167969 0 
AshShajara-126 441.139434814453 0 
AtTurra-446 446.318054199219 0 
Emrawa-98 410 0 
AshShajara-264 430 0 
AtTurra-124 446.178741455078 0 
AshShajara-213 440.768249511719 0 
AtTurra-264 447.098388671875 0 
AtTurra-413 456.071655273438 0 
AtTurra-275 450 0 
AtTurra-272 450 0 
Ethnaibeh-72 410 0 
Ethnaibeh-70 410 0 
AtTurra-59 450 0 
AtTurra-115 450 0 
Emrawa-33 410 0 
AtTurra-343 449.582733154297 0 
AtTurra-361 448.555938720703 0 
AtTurra-360 448.547790527344 0 
AtTurra-314 449.927093505859 0 
ArRamtha-896 510 0 
Emrawa-96 410 0 
AtTurra-255 450 0 
Emrawa-103 410 0 
AshShajara-113 442.85302734375 0 
AtTurra-281 450.042541503906 0 
AshShajara-43 445.384887695313 0 
Ethnaibeh-69 410 0 
AtTurra-428 455.697631835938 0 
AshShajara-282 439.424407958984 0 
AshShajara-280 439.544586181641 0 
Seventh-A-122 530 0 
AtTurra-256 450 0 
Emrawa-112 410 0 
AtTurra-130 447.013763427734 0 
Emrawa-93 410 0 
AshShajara-320 437.53759765625 0 
Ethnaibeh-96 405.081817626953 0 
Six-B-47 532.965515136719 0 
Six-B-53 534.778137207031 0 
Emrawa-18 410 0 
Seventh-A-123 530 0 
Second-10 516.853332519531 0 
AshShajara-48 442.630310058594 0 
Emrawa-79 410 0 
Emrawa-78 410 0 
AshShajara-49 444.577331542969 0 
Emrawa-58 410 0 
Tenth-90 504.672393798828 0 
Ethnaibeh-78 403.540557861328 0 
Emrawa-25 410 0 
Emrawa-32 410 0 
AshShajara-151 442.236267089844 0 
AshShajara-184 440.580688476563 0 
AshShajara-185 440.573699951172 0 
AshShajara-150 442.245910644531 0 
AtTurra-131 447.034393310547 0 
AtTurra-503 450 0 
AtTurra-502 450 0 
AtTurra-457 449.651214599609 0 
AtTurra-458 449.567901611328 0 
AshShajara-304 442.311889648438 0 
AshShajara-253 440.027374267578 0 
Ethnaibeh-63 410 0 
AtTurra-445 447.338287353516 0 
Emrawa-19 410 0 
ArRamtha-899 510 0 
AtTurra-70 450 0 
AshShajara-33 443.06201171875 0 
AshShajara-29 442.769592285156 0 
AtTurra-510 450 0 
AtTurra-462 454.571319580078 0 
AshShajara-191 441.913787841797 0 
AshShajara-192 441.904052734375 0 
Ethnaibeh-73 410 0 
AtTurra-162 446.569366455078 0 
Eighth-35 515.822631835938 0 
AtTurra-285 450 0 
AtTurra-414 455.398010253906 0 
Ninth-A-145 505.812286376953 0 
AshShajara-339 433.482269287109 0 
AshShajara-340 433.149993896484 0 
AshShajara-341 433.143493652344 0 
Emrawa-116 410 0 
AtTurra-168 446.240844726563 0 
AtTurra-58 450 0 
AtTurra-164 446.219482421875 0 
AtTurra-456 449.279235839844 0 
AtTurra-209 450 0 
Seventh-A-124 530 0 
AtTurra-146 449.347351074219 0 
AtTurra-429 450 0 
AtTurra-416 455.354888916016 0 
Sixth-A-21 504.687316894531 0 
AtTurra-265 447.632995605469 0 
AtTurra-262 447.631896972656 0 
AtTurra-497 450.697143554688 0 
AtTurra-477 454.823699951172 0 
Ethnaibeh-34 410 0 
AtTurra-390 448.205444335938 0 
AtTurra-389 448.195861816406 0 
Third-58 505.473358154297 0 
Third-57 505.433410644531 0 
Seventh-A-125 530 0 
AshShajara-259 440.406188964844 0 
AtTurra-284 449.1982421875 0 
AtTurra-46 450 0 
Six-B-35 530.812255859375 0 
Ethnaibeh-46 410 0 
AtTurra-238 450 0 
Ethnaibeh-64 410 0 
Emrawa-82 410 0 
Ninth-B-19 509.297088623047 0 
Emrawa-94 410 0 
Seventh-A-83 527.198181152344 0 
AshShajara-66 442.38818359375 0 
Emrawa-70 410 0 
Eighth-198 501.024047851563 0 
ArRamtha-898 510 0 
Ethnaibeh-52 410 0 
AtTurra-468 454.918975830078 0 
AshShajara-25 442.796203613281 0 
AshShajara-17 440.599853515625 0 
AtTurra-126 447.38671875 0 
ArRamtha-240 530 0 
AtTurra-40 450 0 
AshShajara-414 427.880737304688 0 
Ninth-A-77 494.987182617188 0 
Ninth-A-76 494.953887939453 0 
AtTurra-241 450 0 
AtTurra-244 450 0 
AtTurra-511 450 0 
AtTurra-213 450 0 
Emrawa-85 410 0 
AtTurra-245 450 0 
ArRamtha-1368 503.468688964844 0 
AtTurra-452 449.156585693359 0 
AshShajara-23 442.7734375 0 
AtTurra-28 453.384307861328 0 
Ethnaibeh-90 406.665618896484 0 
AshShajara-202 440.821655273438 0 
AshShajara-80 441.916748046875 0 
Emrawa-99 410 0 
AshShajara-24 442.809234619141 0 
ArRamtha-239 530 0 
AshShajara-134 441.079315185547 0 
AshShajara-165 441.046417236328 0 
First-116 518.860107421875 0 
AtTurra-469 454.893249511719 0 
AshShajara-372 432.015350341797 0 
AtTurra-259 450 0 
AshShajara-91 442.383758544922 0 
AtTurra-397 453.009338378906 0 
AshShajara-238 440.624816894531 0 
First-125 519.958312988281 0 
First-131 520 0 
Sixth-A-43 510 0 
Sixth-A-44 510 0 
AtTurra-199 450.781005859375 0 
AshShajara-411 430.621276855469 0 
AshShajara-334 437.579895019531 0 
AtTurra-55 447.341247558594 0 
AshShajara-69 440.13037109375 0 
Seventh-B-34 530 0 
Seventh-B-35 530 0 
AshShajara-345 435.033874511719 0 
AtTurra-392 448.157379150391 0 
AtTurra-391 448.169586181641 0 
AtTurra-26 459.219299316406 0 
Ninth-A-34 490.899780273438 0 
AshShajara-272 440.043395996094 0 
Eighth-145 510.043060302734 0 
Eighth-146 510.036437988281 0 
AtTurra-407 446.601043701172 0 
Seventh-A-126 530 0 
Ethnaibeh-85 407.498901367188 0 
AtTurra-304 445.952423095703 0 
Tenth-125 510.561706542969 0 
Tenth-124 510.420532226563 0 
AshShajara-363 432.073364257813 0 
AtTurra-356 458.860229492188 0 
AtTurra-357 458.844970703125 0 
ArRamtha-1613 500 0 
AtTurra-324 448.074462890625 0 
AtTurra-75 448.035583496094 0 
AshShajara-410 418.718505859375 0 
Tenth-6 490 0 
First-3 490.880462646484 0 
Ethnaibeh-19 410 0 
AtTurra-116 450 0 
AtTurra-63 448.744964599609 0 
AshShajara-169 440.761199951172 0 
Seventh-A-127 530 0 
Seventh-B-36 530 0 
ArRamtha-1325 502.765563964844 0 
AtTurra-333 440 0 
Seventh-A-128 530 0 
Fifth-12 505.201690673828 0 
Fifth-13 505.216186523438 0 
Second-63 500.536712646484 0 
Second-64 500.520538330078 0 
AshShajara-225 443.065704345703 0 
Ethnaibeh-27 410 0 
AtTurra-64 448.568145751953 0 
AshShajara-432 417.857299804688 0 
AshShajara-44 440.777038574219 0 
ArRamtha-911 514.002868652344 0 
Seventh-A-129 530 0 
AshShajara-193 440.824127197266 0 
AtTurra-465 454.539215087891 0 
Ethnaibeh-17 410 0 
AtTurra-222 455.8974609375 0 
AshShajara-221 440.216674804688 0 
AtTurra-295 450 0 
Ethnaibeh-94 405.288757324219 0 
AshShajara-373 431.398101806641 0 
AtTurra-364 449.830078125 0 
AtTurra-227 455.907989501953 0 
AtTurra-105 449.320220947266 0 
Ethnaibeh-97 404.517211914063 0 
AshShajara-19 441.130950927734 0 
AshShajara-87 440.802093505859 0 
AtTurra-112 450 0 
AshShajara-245 439.006958007813 0 
AshShajara-110 440.042175292969 0 
ArRamtha-252 530 0 
AshShajara-374 439.630004882813 0 
First-230 522.066223144531 0 
AshShajara-146 442.015502929688 0 
AshShajara-401 434.299713134766 0 
AshShajara-18 441.107299804687 0 
AshShajara-326 440.208129882813 0 
AtTurra-176 450 0 
Emrawa-90 410 0 
Third-49 504.180603027344 0 
AshShajara-53 443.418792724609 0 
AshShajara-52 443.407653808594 0 
Emrawa-66 410 0 
AshShajara-218 440.387054443359 0 
AshShajara-404 432.282135009766 0 
AshShajara-237 443.003631591797 0 
AshShajara-136 440.972229003906 0 
AshShajara-139 440.964996337891 0 
AshShajara-399 435.227508544922 0 
AtTurra-29 443.608917236328 0 
First-39 511.147064208984 0 
AshShajara-247 440.043029785156 0 
AshShajara-228 440.360443115234 0 
AtTurra-149 443.700805664063 0 
First-185 520.007507324219 0 
First-183 520.005615234375 0 
Ninth-A-29 490.690795898438 0 
ArRamtha-1323 502.716003417969 0 
AshShajara-176 441.121856689453 0 
Ninth-A-41 491.196899414063 0 
Ethnaibeh-11 410 0 
AtTurra-470 454.683135986328 0 
AtTurra-471 454.649047851563 0 
AtTurra-461 454.554321289063 0 
AtTurra-460 443.821502685547 0 
First-81 517.047912597656 0 
Ethnaibeh-86 406.722442626953 0 
AtTurra-161 446.583221435547 0 
AshShajara-62 444.455230712891 0 
AshShajara-319 437.488037109375 0 
First-281 528.509521484375 0 
First-282 528.647277832031 0 
Seventh-A-130 530 0 
AshShajara-157 441.64697265625 0 
Eighth-203 500.371490478516 0 
Eighth-202 500.405548095703 0 
Emrawa-72 410 0 
AtTurra-505 450.002197265625 0 
Tenth-128 511.446746826172 0 
AtTurra-348 450 0 
AtTurra-509 450 0 
Ethnaibeh-71 410 0 
First-76 516.260559082031 0 
First-74 516.177917480469 0 
AtTurra-99 448.100738525391 0 
AtTurra-98 448.114318847656 0 
AshShajara-241 443.259552001953 0 
Ethnaibeh-31 410 0 
AtTurra-393 448.173828125 0 
Ninth-A-82 495.599456787109 0 
Sixth-A-4 502.742553710938 0 
AshShajara-82 441.283508300781 0 
AshShajara-295 435.529663085938 0 
Tenth-87 504.370269775391 0 
AshShajara-130 442.159545898438 0 
AshShajara-205 441.568603515625 0 
First-84 517.500915527344 0 
First-85 517.558898925781 0 
AshShajara-242 443.215667724609 0 
Sixth-A-3 502.727233886719 0 
AshShajara-64 445.199920654297 0 
AtTurra-144 448.780609130859 0 
Second-68 500 0 
Second-70 500 0 
AtTurra-283 450 0 
AshShajara-244 443.079528808594 0 
AshShajara-159 441.621734619141 0 
First-284 530 0 
First-285 530 0 
AshShajara-120 442.475402832031 0 
AshShajara-389 440.136627197266 0 
AtTurra-206 450 0 
AtTurra-355 448.106506347656 0 
AshShajara-286 436.615081787109 0 
AtTurra-148 461.962829589844 0 
AshShajara-16 441.058868408203 0 
AtTurra-325 446.856536865234 0 
Seventh-B-75 536.041809082031 0 
Seventh-B-76 536.073608398438 0 
ArRamtha-889 510 0 
ArRamtha-894 510 0 
Ninth-A-43 491.265411376953 0 
Ninth-A-42 491.205352783203 0 
Ethnaibeh-57 410 0 
Emrawa-101 410 0 
Ninth-A-35 490.919525146484 0 
Ninth-A-66 493.838897705078 0 
Ethnaibeh-84 407.599700927734 0 
AshShajara-22 442.780212402344 0 
AtTurra-54 447.330505371094 0 
AshShajara-354 441.137023925781 0 
Second-61 501.254486083984 0 
Ninth-A-144 505.803833007813 0 
Seventh-A-16 517.872436523438 0 
Seventh-A-131 530 0 
First-132 520 0 
First-133 520 0 
AtTurra-147 450 0 
AtTurra-193 450 0 
ArRamtha-142 514.419555664063 0 
ArRamtha-141 514.457824707031 0 
Tenth-75 502.660705566406 0 
AtTurra-172 450 0 
AtTurra-173 450 0 
AtTurra-421 456.321472167969 0 
Ninth-A-45 491.355651855469 0 
Ninth-A-46 491.380187988281 0 
AtTurra-125 447.411529541016 0 
Seventh-B-37 530 0 
First-122 519.611755371094 0 
AtTurra-310 449.151336669922 0 
Emrawa-13 410 0 
AshShajara-73 444.346954345703 0 
AshShajara-75 444.330841064453 0 
Eighth-162 503.215789794922 0 
Eighth-163 503.184020996094 0 
AtTurra-257 450 0 
AtTurra-404 450 0 
Ethnaibeh-56 410 0 
AshShajara-206 441.553802490234 0 
AshShajara-121 441.340698242188 0 
Seventh-A-132 530 0 
Second-71 500 0 
Fourth-39 503.789642333984 0 
AtTurra-480 454.022155761719 0 
AshShajara-353 440.722900390625 0 
AshShajara-356 440.677093505859 0 
AtTurra-473 442.024169921875 0 
AshShajara-430 419.605346679688 0 
AshShajara-368 432.153045654297 0 
AshShajara-366 432.211364746094 0 
AtTurra-190 450 0 
AtTurra-189 450 0 
Emrawa-114 410 0 
AshShajara-166 441.955139160156 0 
AtTurra-167 450 0 
First-2 490.792327880859 0 
AshShajara-305 437.205505371094 0 
Ninth-A-138 503.282501220703 0 
Eighth-144 503.317535400391 0 
Third-17 500.264953613281 0 
Third-16 500.184875488281 0 
AshShajara-392 438.338897705078 0 
First-107 518.59033203125 0 
First-108 518.602111816406 0 
AshShajara-405 431.733093261719 0 
AtTurra-278 450 0 
Eighth-73 521.136596679688 0 
Eighth-74 521.079528808594 0 
AshShajara-156 440.372589111328 0 
Six-B-57 535.258056640625 0 
AtTurra-277 447.435241699219 0 
AshShajara-197 443.035827636719 0 
AshShajara-196 443.046051025391 0 
AshShajara-198 440.461029052734 0 
Seventh-A-133 530 0 
AshShajara-297 434.983276367188 0 
AshShajara-298 434.998474121094 0 
Ethnaibeh-20 410 0 
ArRamtha-939 516.198364257813 0 
Ninth-A-87 496.202880859375 0 
Ninth-A-86 496.156005859375 0 
Seventh-A-108 529.371704101563 0 
Seventh-A-110 529.403991699219 0 
AshShajara-55 442.282012939453 0 
First-254 524.369506835938 0 
First-253 524.193298339844 0 
AtTurra-441 454.909637451172 0 
AshShajara-123 442.599578857422 0 
First-229 522.064880371094 0 
AtTurra-47 442.297424316406 0 
AtTurra-293 449.915618896484 0 
AshShajara-296 443.48388671875 0 
AtTurra-120 450 0 
AtTurra-33 446.851959228516 0 
Ninth-B-15 504.169647216797 0 
AshShajara-81 442.746368408203 0 
AtTurra-307 459.318756103516 0 
Sixth-A-25 505.020172119141 0 
Sixth-A-24 505.007476806641 0 
AshShajara-273 438.470825195312 0 
AshShajara-277 438.220642089844 0 
AshShajara-8 447.787567138672 0 
First-110 518.636901855469 0 
First-105 518.533813476563 0 
AshShajara-211 441.789520263672 0 
AtTurra-335 457.407897949219 0 
AshShajara-127 441.540374755859 0 
AshShajara-125 441.557708740234 0 
AshShajara-170 442.521484375 0 
AshShajara-171 442.534973144531 0 
AshShajara-423 423.227600097656 0 
AtTurra-311 447.524536132813 0 
Ethnaibeh-22 410 0 
First-50 512.183166503906 0 
First-134 520 0 
First-135 520 0 
Ethnaibeh-23 410 0 
Ethnaibeh-41 410 0 
Emrawa-80 410 0 
AshShajara-249 442.858459472656 0 
AshShajara-248 442.862915039063 0 
AtTurra-309 449.860748291016 0 
AshShajara-155 441.276428222656 0 
AshShajara-115 443.669342041016 0 
AshShajara-118 443.655883789063 0 
AtTurra-180 452.650115966797 0 
AshShajara-416 426.996307373047 0 
Ethnaibeh-29 410 0 
First-118 519.139953613281 0 
Sixth-A-89 518.763000488281 0 
Sixth-A-88 518.71044921875 0 
AtTurra-175 450 0 
Seventh-A-134 530 0 
Emrawa-61 410 0 
Ninth-B-4 500 0 
AshShajara-294 443.351226806641 0 
AshShajara-293 439.851989746094 0 
AtTurra-266 450 0 
Ninth-A-49 491.684265136719 0 
Ninth-A-25 490.497833251953 0 
Ninth-A-53 492.043823242188 0 
AshShajara-299 440.100891113281 0 
AshShajara-407 431.573059082031 0 
Ethnaibeh-38 410 0 
AtTurra-129 442.872741699219 0 
AtTurra-140 442.777465820313 0 
Sixth-A-5 502.808563232422 0 
Ethnaibeh-45 410 0 
Ethnaibeh-79 400.763977050781 0 
Eighth-142 503.347412109375 0 
Eighth-143 503.367431640625 0 
Seventh-A-67 525.799682617188 0 
AshShajara-111 442.934387207031 0 
AshShajara-317 440.211700439453 0 
AshShajara-183 440.314239501953 0 
AshShajara-435 410.463592529297 0 
Seventh-A-135 530 0 
First-208 520.536254882813 0 
AtTurra-381 450 0 
Seventh-A-136 530 0 
AshShajara-107 441.568542480469 0 
AtTurra-386 450.108551025391 0 
Ninth-B-13 500.691375732422 0 
AtTurra-268 450 0 
AtTurra-369 449.326232910156 0 
Tenth-30 495.142578125 0 
Tenth-31 495.146392822266 0 
First-44 511.604400634766 0 
First-43 511.566528320312 0 
AshShajara-421 423.853576660156 0 
AtTurra-263 450 0 
AtTurra-332 447.291961669922 0 
First-104 518.525207519531 0 
First-101 518.411743164063 0 
AtTurra-467 452.218017578125 0 
Tenth-84 504.332885742188 0 
AtTurra-110 451.581451416016 0 
First-241 522.749694824219 0 
First-256 524.391723632813 0 
First-257 524.410034179688 0 
Tenth-127 511.364532470703 0 
Ethnaibeh-101 402.879638671875 0 
AtTurra-500 451.715393066406 0 
AtTurra-118 446.212768554687 0 
Tenth-111 507.908569335938 0 
AshShajara-145 440.611297607422 0 
AshShajara-135 443.195434570313 0 
AtTurra-398 453.073699951172 0 
AshShajara-78 430 0 
Ethnaibeh-14 410 0 
AshShajara-200 442.976318359375 0 
Tenth-67 500.395690917969 0 
Tenth-40 497.072845458984 0 
AtTurra-269 450 0 
AtTurra-207 450 0 
AtTurra-444 455.628814697266 0 
First-113 518.804382324219 0 
First-114 518.819763183594 0 
AshShajara-429 419.904449462891 0 
AshShajara-428 420.317718505859 0 
AshShajara-262 443.481628417969 0 
AtTurra-188 450 0 
Ethnaibeh-95 404.087585449219 0 
AshShajara-30 443.034545898438 0 
First-117 518.8759765625 0 
AtTurra-376 448.749298095703 0 
AtTurra-231 450 0 
Eighth-115 509.044769287109 0 
Eighth-114 509.058746337891 0 
AshShajara-333 440.7314453125 0 
AshShajara-424 422.468627929687 0 
AtTurra-230 450 0 
AtTurra-354 450 0 
AtTurra-88 447.647186279297 0 
Emrawa-31 410 0 
First-237 522.34326171875 0 
Second-20 508.88720703125 0 
ArRamtha-1070 512.131225585938 0 
Seventh-A-80 527.0478515625 0 
Seventh-A-137 530 0 
Seventh-A-138 530 0 
Seventh-A-139 530 0 
AshShajara-378 440.732788085938 0 
Seventh-A-140 530 0 
Seventh-B-83 538.502258300781 0 
AshShajara-386 440.248443603516 0 
AtTurra-41 448.777221679688 0 
Emrawa-8 410 0 
Emrawa-9 410 0 
AshShajara-436 407.380767822266 0 
Seventh-A-141 530 0 
Seventh-A-142 530 0 
Ninth-A-78 495.057006835937 0 
AtTurra-420 456.38037109375 0 
Six-B-46 532.928039550781 0 
AshShajara-358 431.22509765625 0 
AtTurra-65 448.531280517578 0 
Emrawa-100 410 0 
AshShajara-311 441.411346435547 0 
AshShajara-92 442.051361083984 0 
Fourth-3 500 0 
Eighth-199 500.920532226563 0 
Eighth-200 500.878723144531 0 
First-225 521.321716308594 0 
Tenth-92 504.799987792969 0 
AtTurra-154 446.475128173828 0 
AshShajara-32 443.332946777344 0 
AtTurra-77 456.328277587891 0 
AtTurra-401 443.330047607422 0 
Tenth-21 492.791870117188 0 
Second-84 500 0 
Second-85 500 0 
Tenth-151 522.101135253906 0 
AtTurra-396 450 0 
Third-1 500 0 
First-194 520.167175292969 0 
First-193 520.165283203125 0 
AshShajara-308 439.683715820313 0 
AshShajara-310 439.676239013672 0 
Tenth-101 506.288146972656 0 
Tenth-79 502.934783935547 0 
First-136 520 0 
First-137 520 0 
AshShajara-133 443.276885986328 0 
First-16 506.178100585938 0 
First-79 516.756652832031 0 
Tenth-76 502.760833740234 0 
AshShajara-338 441.147491455078 0 
First-211 520.67138671875 0 
Ethnaibeh-5 410 0 
AtTurra-153 450 0 
AshShajara-412 430.276153564453 0 
Seventh-B-85 540.0830078125 0 
Tenth-122 510.154754638672 0 
Tenth-123 510.217407226563 0 
AtTurra-450 449.003295898437 0 
AtTurra-186 450 0 
AtTurra-185 450 0 
AshShajara-381 433.602783203125 0 
AtTurra-76 456.50048828125 0 
Seventh-B-71 535.728149414063 0 
Seventh-B-73 535.748901367188 0 
AtTurra-217 449.892364501953 0 
First-61 514.202514648438 0 
Ninth-A-65 493.829040527344 0 
First-264 525.154602050781 0 
AtTurra-45 450 0 
First-210 520.653686523438 0 
Ninth-A-67 493.923278808594 0 
Ninth-A-68 493.938537597656 0 
AtTurra-219 450 0 
Seventh-A-27 519.5263671875 0 
Seventh-A-28 519.548217773438 0 
First-36 510.346862792969 0 
First-82 517.127563476563 0 
Third-44 503.441162109375 0 
Third-43 503.399963378906 0 
Ninth-A-118 500.648406982422 0 
Third-70 508.829956054688 0 
AtTurra-86 450.203338623047 0 
AtTurra-270 450 0 
Seventh-A-92 527.965576171875 0 
Tenth-141 515.092590332031 0 
Tenth-140 514.995971679688 0 
Eighth-111 510.654327392578 0 
Eighth-110 510.703918457031 0 
AtTurra-141 453.306213378906 0 
Emrawa-35 410 0 
Second-47 503.012847900391 0 
AshShajara-58 441.555938720703 0 
AtTurra-82 447.90576171875 0 
AtTurra-260 449.139282226563 0 
AshShajara-350 431.855072021484 0 
Eighth-141 514.739440917969 0 
AtTurra-250 450 0 
First-115 518.832336425781 0 
Seventh-A-143 530 0 
AtTurra-322 450 0 
AshShajara-359 432.292205810547 0 
AshShajara-187 441.313262939453 0 
AtTurra-91 445.677795410156 0 
AtTurra-92 445.729705810547 0 
Ninth-B-3 502.259918212891 0 
Ninth-B-1 502.296203613281 0 
AshShajara-346 435.883422851562 0 
AshShajara-403 430.999603271484 0 
First-17 507.918670654297 0 
Emrawa-49 410 0 
Ethnaibeh-81 409.613433837891 0 
Emrawa-108 410 0 
Seventh-A-30 519.756164550781 0 
Seventh-A-33 519.844177246094 0 
AtTurra-300 448.77978515625 0 
AtTurra-301 448.756988525391 0 
AtTurra-486 452.717987060547 0 
Seventh-A-144 530 0 
Seventh-A-145 530 0 
Seventh-A-63 525.620056152344 0 
Seventh-B-26 529.150268554688 0 
Seventh-A-117 529.843139648438 0 
First-228 522.043640136719 0 
Tenth-93 505.070526123047 0 
Third-2 500 0 
AshShajara-46 440.754852294922 0 
AtTurra-31 446.907745361328 0 
Seventh-A-74 526.633605957031 0 
Ninth-A-103 499.096954345703 0 
First-247 523.096923828125 0 
First-8 501.125671386719 0 
AtTurra-196 445.236633300781 0 
AshShajara-332 438.340118408203 0 
AtTurra-183 450 0 
Ethnaibeh-4 410 0 
Eighth-194 505.236938476563 0 
Eighth-191 505.328277587891 0 
Seventh-A-146 530 0 
Second-59 501.279083251953 0 
AshShajara-427 420.910430908203 0 
First-138 520 0 
AtTurra-43 448.318298339844 0 
AshShajara-388 440.18505859375 0 
AtTurra-514 450 0 
First-7 493.232238769531 0 
Fourth-20 501.833038330078 0 
AshShajara-349 431.522766113281 0 
AtTurra-251 450 0 
AtTurra-248 450 0 
Second-22 508.642150878906 0 
Tenth-100 506.073699951172 0 
Sixth-A-85 518.58154296875 0 
Sixth-A-83 518.534545898438 0 
Seventh-A-147 530 0 
AtTurra-336 450 0 
Emrawa-62 410 0 
AtTurra-412 449.1279296875 0 
Second-94 500 0 
Second-97 500 0 
AtTurra-342 449.919128417969 0 
First-139 520 0 
AshShajara-255 430 0 
AshShajara-422 423.434631347656 0 
AshShajara-330 433.789825439453 0 
Emrawa-88 410 0 
First-140 520 0 
First-26 509.208312988281 0 
AshShajara-138 442.901458740234 0 
AshShajara-137 442.924346923828 0 
Sixth-A-1 502.439086914063 0 
AshShajara-96 443.730560302734 0 
Third-3 500 0 
Seventh-B-82 538.138061523438 0 
AtTurra-371 449.927703857422 0 
First-189 520.106811523438 0 
First-187 520.049926757813 0 
AshShajara-361 437.795989990234 0 
AshShajara-360 437.985015869141 0 
Ninth-A-91 496.759338378906 0 
Emrawa-28 410 0 
Seventh-A-148 530 0 
First-250 523.395874023438 0 
First-249 523.384094238281 0 
AshShajara-300 439.147247314453 0 
Tenth-107 507.501922607422 0 
Third-47 503.589111328125 0 
Ninth-B-7 502.246429443359 0 
AshShajara-251 440.049407958984 0 
Emrawa-57 410 0 
AtTurra-298 449.990081787109 0 
AtTurra-296 450 0 
Ethnaibeh-43 410 0 
Ethnaibeh-42 410 0 
Eighth-82 514.448547363281 0 
Eighth-96 512.875732421875 0 
Eighth-77 514.209045410156 0 
Tenth-150 521.623474121094 0 
Fifth-7 503.884155273438 0 
Eighth-179 503.495819091797 0 
Tenth-18 492.665771484375 0 
Third-28 501.188873291016 0 
AtTurra-326 446.259979248047 0 
AtTurra-170 450 0 
Tenth-54 499.271392822266 0 
Ninth-A-84 496.108520507813 0 
First-141 520 0 
Eighth-52 515.539916992188 0 
Third-38 502.808319091797 0 
AshShajara-132 441.519409179688 0 
AshShajara-434 410.254913330078 0 
Seventh-A-59 524.818115234375 0 
ArRamtha-1591 500 0 
First-266 525.228515625 0 
First-268 525.288024902344 0 
First-142 520 0 
AshShajara-257 440.295318603516 0 
AshShajara-254 440.351196289063 0 
Seventh-A-87 527.713989257813 0 
AshShajara-301 439.438354492187 0 
Tenth-114 509.178802490234 0 
AshShajara-393 436.269714355469 0 
Emrawa-5 410 0 
AshShajara-147 442.700531005859 0 
AtTurra-387 450 0 
Eighth-59 523.497863769531 0 
Six-B-10 530 0 
AtTurra-156 446.855194091797 0 
Sixth-A-8 502.993591308594 0 
AshShajara-274 437.299865722656 0 
Tenth-51 498.342407226563 0 
Tenth-50 498.247467041016 0 
Second-53 501.249328613281 0 
Second-110 500 0 
Eighth-160 510.797912597656 0 
Eighth-161 510.531372070313 0 
Ninth-A-50 491.831024169922 0 
AshShajara-331 432.474517822266 0 
Seventh-A-149 530 0 
Emrawa-71 410 0 
Eighth-183 503.441802978516 0 
AshShajara-76 442.038543701172 0 
Ninth-A-126 501.622924804688 0 
Seventh-A-91 527.957214355469 0 
Ethnaibeh-58 410 0 
Second-54 502.663116455078 0 
AshShajara-79 445.152496337891 0 
Seventh-A-79 527.027221679688 0 
First-143 520 0 
AtTurra-388 453.34130859375 0 
Ethnaibeh-88 403.737457275391 0 
Sixth-A-7 502.915924072266 0 
AtTurra-498 453.895904541016 0 
Seventh-A-150 530 0 
AshShajara-398 436.232452392578 0 
AtTurra-135 449.608489990234 0 
Eighth-71 523.047485351563 0 
Sixth-A-15 504.221160888672 0 
Ethnaibeh-49 410 0 
First-278 528.211364746094 0 
AtTurra-145 462.459136962891 0 
Tenth-118 509.355438232422 0 
Tenth-115 509.205413818359 0 
Eighth-72 514.761657714844 0 
First-86 517.754272460938 0 
Ninth-A-58 492.685791015625 0 
Second-73 502.231353759766 0 
Second-76 501.921539306641 0 
AtTurra-377 450 0 
ArRamtha-903 510 0 
ArRamtha-1604 500 0 
First-276 526.916015625 0 
Seventh-A-151 530 0 
Seventh-A-152 530 0 
AtTurra-184 450 0 
AshShajara-86 444.192138671875 0 
Fifth-4 503.433441162109 0 
Second-16 509.032012939453 0 
Second-18 508.539733886719 0 
AtTurra-341 449.196716308594 0 
AshShajara-217 440 0 
Ethnaibeh-15 410 0 
First-97 518.302856445313 0 
First-93 518.100280761719 0 
Seventh-A-111 529.509582519531 0 
First-11 504.293792724609 0 
Six-B-51 533.964294433594 0 
Ethnaibeh-30 410 0 
ArRamtha-1410 503.1611328125 0 
ArRamtha-1409 503.190368652344 0 
Second-87 501.047576904297 0 
Second-82 501.271453857422 0 
AshShajara-100 442.957550048828 0 
Eighth-98 512.8388671875 0 
First-144 520 0 
First-145 520 0 
AshShajara-347 435.573974609375 0 
AshShajara-220 440.273864746094 0 
AtTurra-233 450 0 
Ninth-A-57 492.514465332031 0 
Tenth-56 499.675537109375 0 
Tenth-64 500.078796386719 0 
AshShajara-219 441.34423828125 0 
Ethnaibeh-102 398.010375976563 0 
AshShajara-141 440.9189453125 0 
Tenth-5 489.636779785156 0 
AtTurra-205 450 0 
AshShajara-14 430 0 
Tenth-78 502.815704345703 0 
First-109 518.62060546875 0 
First-112 518.710021972656 0 
Ethnaibeh-24 410 0 
Seventh-A-153 530 0 
AtTurra-39 450 0 
AtTurra-253 450 0 
First-24 508.687347412109 0 
Sixth-A-64 511.565277099609 0 
First-21 508.597259521484 0 
AshShajara-315 437.035583496094 0 
AshShajara-188 441.605865478516 0 
First-119 519.235778808594 0 
AtTurra-94 445.703643798828 0 
Seventh-A-89 527.805114746094 0 
Eighth-90 518.565734863281 0 