[TITLE]
Scenario: Base 
Date: 29/11/2011 2:00:23 PM 

[JUNCTIONS]
29 957 0 
31 956 0 
33 957 0 
35 953 0 
37 938 0 
39 932 0 
43 931 0 
49 939 0 
51 951 0 
53 951 0 
55 928 0 
59 938 0 
61 938 0 
63 925 0 
65 930 0 
67 928 0 
69 926 0 
71 928 0 
73 930 0 
75 930 0 
77 928 0 
79 930 0 
81 926 0 
83 926 0 
85 928 0 
87 945 0 
89 941 0 
91 944 0 
93 950 0 
95 950 0 
97 945 0 
99 943 0 
101 943 0 
103 935 0 
105 931 0 
107 940 0 
109 940 0 
113 936 0 
115 936 0 
117 935 0 
119 936 0 
121 936 0 
123 938 0 
125 930 0 
127 930 0 
133 917 0 
135 917 0 
137 904 0 
139 909 0 
149 922 0 
151 931 0 
153 931 0 
155 934 0 
160 931 0 
162 931 0 
164 940 0 
166 952 0 
168 951 0 
170 936 0 
172 923.000033206817 0 
174 923 0 
176 924.999985550575 0 
178 926 0 
180 931 0 
182 923 0 
184 927 0 
186 925 0 
194 935 0 
196 934 0 
200 931 0 
204 938 0 
206 940 0 
208 944 0 
210 944 0 
213 936 0 
217 934 0 
219 937 0 
221 939 0 
223 945 0 
226 932 0 
228 940 0 
231 943 0 
236 951 0 
239 932 0 
241 951 0 
243 935 0 
245 933 0 
247 934 0 
249 936 0 
251 935 0 
256 937 0 
259 925 0 
261 915 0 
263 907 0 
265 900 0 
269 900 0 
271 900 0 
274 895 0 
278 900 0 
280 928 0 
282 911 0 
284 910 0 
286 912 0 
288 911 0 
290 918 0 
293 925 0 
295 923 0 
297 920 0 
299 930 0 
301 928 0 
303 927 0 
306 930 0 
308 929 0 
310 926.000036136516 0 
312 921.000006448996 0 
314 929 0 
324 936 0 
331 928 0 
333 937 0 
339 907 0 
342 907 0 
344 925 0 
346 925 0 
348 923 0 
350 921 0 
353 900 0 
357 912 0 
359 927.999988480274 0 
361 927.999988480274 0 
363 911 0 
365 911 0 
367 910 0 
369 925 0 
373 911 0 
376 925 0 
378 912 0 
380 927.999988480274 0 
382 928 0 
384 928 0 
386 928 0 
388 928 0 
390 926 0 
394 930 0 
398 924 0 
404 929 0 
408 936 0 
410 938 0 
412 930 0 
414 937 0 
418 938 0 
420 930 0 
422 940 0 
424 939 0 
434 896 0 
436 895 0 
438 945 0 
440 897 0 
442 882 0 
444 900 0 
446 900 0 
448 904 0 
452 913 0 
454 900 0 
455 922 0 
457 903 0 
459 915 0 
461 900 0 
463 889 0 
465 895 0 
467 912 0 
471 931 0 
473 936 0 
475 938 0 
477 940 0 
480 957 0 
482 946 0 
484 947 0 
489 937 0 
491 937 0 
493 938 0 
495 936.999997269373 0 
497 936.999997269373 0 
503 940 0 
505 930 0 
507 916 0 
523 929 0 
533 923 0 
535 920 0 
537 910 0 
539 937 0 
541 938 0 
543 937 0 
545 926 0 
550 923 0 
552 928 0 
554 940 0 
558 914 0 
560 912 0 
562 905 0 
566 906 0 
568 906 0 
571 909 0 
575 901 0 
577 914 0 
579 911 0 
581 915 0 
583 903 0 
585 905 0 
587 904 0 
589 906 0 
595 898 0 
597 911 0 
599 910 0 
601 913 0 
603 916 0 
607 914 0 
609 908 0 
611 914 0 
613 900 0 
617 918.000003519297 0 
621 924 0 
623 923 0 
626 924 0 
627 923 0 
629 900 0 
631 899 0 
634 888 0 
638 900 0 
640 900 0 
642 900 0 
644 900 0 
646 900 0 
648 901 0 
654 932 0 
656 934 0 
658 942 0 
660 926 0 
662 926 0 
664 935 0 
666 941 0 
669 941 0 
673 942 0 
675 942 0 
678 942 0 
680 942 0 
682 934 0 
684 931 0 
686 932 0 
688 937 0 
690 937 0 
692 937 0 
694 933 0 
696 917 0 
698 926 0 
700 923 0 
702 923 0 
711 934 0 
713 935 0 
715 932 0 
717 933 0 
719 933 0 
723 932 0 
725 921 0 
728 915 0 
730 903 0 
732 903 0 
734 913 0 
738 913 0 
740 904 0 
742 917 0 
745 922 0 
747 923 0 
749 923 0 
751 930 0 
754 904 0 
756 909 0 
758 918 0 
761 920 0 
763 923 0 
767 928 0 
769 922 0 
771 921 0 
773 918 0 
775 913 0 
777 901 0 
779 904 0 
781 907 0 
783 907 0 
785 905 0 
787 903 0 
789 904 0 
791 909 0 
795 930 0 
797 922 0 
799 920 0 
801 917 0 
803 917 0 
805 916 0 
807 914 0 
809 902 0 
811 922 0 
813 911 0 
815 909 0 
817 911 0 
819 920 0 
821 924 0 
823 906 0 
829 899 0 
832 887 0 
836 906 0 
838 887 0 
840 900 0 
842 920 0 
851 926 0 
855 925 0 
857 912 0 
859 909 0 
862 929 0 
864 916 0 
866 902 0 
869 901 0 
871 915 0 
873 903 0 
875 902 0 
881 916 0 
882 925 0 
885 938 0 
887 938 0 
889 926 0 
891 940 0 
893 925 0 
896 921.000006448996 0 
898 936 0 
900 935 0 
902 921 0 
904 921.999982620875 0 
906 922 0 
908 921 0 
910 909.999970902078 0 
912 896 0 
915 895 0 
917 936 0 
919 935 0 
923 921.999982620875 0 
931 906 0 
933 889 0 
935 895 0 
937 889 0 
939 892 0 
941 915 0 
943 918 0 
945 920 0 
947 921.999982620875 0 
949 921.000006448996 0 
951 901 0 
953 929 0 
956 918 0 
958 920.000030277118 0 
960 921.999982620875 0 
962 921.999982620875 0 
964 921 0 
966 918 0 
968 910 0 
972 921.999982620875 0 
975 921.999982620875 0 
977 923.000033206817 0 
979 915.999976761476 0 
981 915.999976761476 0 
983 920.000030277118 0 
985 921.999982620875 0 
987 927.000012308395 0 
989 923.000033206817 0 
990 911.000021488019 0 
992 924.999985550575 0 
994 921.999982620875 0 
996 926 0 
998 920 0 
1000 924.999985550575 0 
1009 926 0 
1012 909 0 
1014 901 0 
1016 902 0 
1018 901 0 
1020 894 0 
1023 869 0 
1027 900 0 
1029 890 0 
1031 915 0 
1035 908 0 
1037 911 0 
1039 935 0 
1041 934 0 
1043 934 0 
1045 934 0 
1047 931 0 
1049 930 0 
1051 926 0 
1053 925 0 
1055 924 0 
1057 921 0 
1059 931 0 
1061 905 0 
1063 907 0 
1065 902 0 
1069 904 0 
1071 905 0 
1076 907 0 
1078 936 0 
1080 935 0 
1083 927 0 
1085 925 0 
1087 910 0 
1090 907 0 
1092 904 0 
1096 901 0 
1098 937 0 
1100 927 0 
1102 929 0 
1104 930 0 
1106 929 0 
1108 927 0 
1111 894 0 
1113 930 0 
1115 930 0 
1119 925 0 
1121 928 0 
1127 905 0 
1129 940 0 
1131 905 0 
1133 903 0 
1135 933 0 
1137 931 0 
1139 924 0 
1141 911 0 
1143 907 0 
1145 903.999965042678 0 
1147 903.999965042678 0 
1149 908 0 
1151 907 0 
1153 910 0 
1155 909 0 
1157 910 0 
1159 908 0 
1161 937 0 
1165 904 0 
1167 940 0 
1169 910 0 
1172 913 0 
1174 956 0 
1175 942 0 
1177 943 0 
1179 933 0 
1181 925 0 
1183 927 0 
1185 930 0 
1187 925 0 
1189 927 0 
1191 925 0 
1193 930 0 
1195 924 0 
1197 925 0 
1199 923 0 
1201 925 0 
1203 926 0 
1206 930 0 
1208 930 0 
1210 940 0 
1217 940 0 
1219 938 0 
1221 938 0 
1223 936 0 
1225 935 0 
1227 911.000021488019 0 
1229 935 0 
1231 934 0 
1233 934 0 
1235 934 0 
1238 934 0 
1242 939 0 
1244 938 0 
1246 934 0 
1249 937 0 
1251 939.000024027193 0 
1253 939.000024027193 0 
1255 939 0 
1257 940 0 
1260 940.999976370951 0 
1262 930 0 
1264 934.999970511552 0 
1266 934.999970511552 0 
1268 937.999973441252 0 
1270 939.000024027193 0 
1272 936.999997269373 0 
1274 936.000021097494 0 
1276 936.999997269373 0 
1278 935 0 
1279 942 0 
1281 928.999964652153 0 
1283 930.000015238095 0 
1285 936.999997269373 0 
1287 933.000018167794 0 
1289 928 0 
1291 943 0 
1293 933.999994339673 0 
1295 943 0 
1297 902 0 
1301 930 0 
1304 930 0 
1306 930 0 
1310 922 0 
1315 918 0 
1316 920 0 
1318 907 0 
1320 900 0 
1322 883 0 
1324 883 0 
1326 884 0 
1328 882 0 
1330 908 0 
1332 894 0 
1334 896 0 
1336 898 0 
1338 904 0 
1342 895 0 
1344 897 0 
1346 898 0 
1348 900 0 
1350 902 0 
1352 900 0 
1355 917.000027347418 0 
1356 914 0 
1358 912 0 
1360 906 0 
1363 903 0 
1365 907 0 
1367 907 0 
1369 899 0 
1371 898 0 
1373 880 0 
1379 879 0 
1381 883 0 
1387 879 0 
1389 893 0 
1391 900 0 
1393 900 0 
1395 900 0 
1397 904 0 
1400 909 0 
1403 911 0 
1405 909 0 
1407 900 0 
1420 907 0 
1424 903 0 
1428 914 0 
1430 913 0 
1432 912 0 
1437 912 0 
1439 906 0 
1444 913 0 
1447 916 0 
1455 900 0 
1457 900 0 
1461 897 0 
1467 871 0 
1469 864 0 
1471 899 0 
1474 900 0 
1477 906 0 
1484 913 0 
1488 901 0 
1490 901 0 
1492 907 0 
1495 899.9999859411 0 
1498 901 0 
1502 902 0 
1505 920 0 
1507 916 0 
1509 913 0 
1513 902 0 
1521 908 0 
1523 900 0 
1525 886 0 
1527 879 0 
1529 884 0 
1531 879 0 
1537 872 0 
1541 904 0 
1548 906 0 
1554 915 0 
1556 900 0 
1558 911 0 
1560 903 0 
1563 910 0 
1565 899.9999859411 0 
1567 900 0 
1569 900 0 
1571 900 0 
1573 935 0 
1575 932 0 
1577 915 0 
1579 916 0 
1581 916 0 
1583 929 0 
1585 916 0 
1589 929 0 
1591 929 0 
1593 937 0 
1595 936 0 
1599 933 0 
1601 901 0 
1603 909 0 
1605 904 0 
1607 920 0 
1611 930 0 
1613 929 0 
1615 917 0 
1617 916 0 
1619 917 0 
1621 930 0 
1623 926 0 
1625 910 0 
1627 913 0 
1629 928 0 
1631 917 0 
1634 917 0 
1637 925 0 
1639 933 0 
1642 915 0 
1645 927 0 
1647 925 0 
1649 935 0 
1651 930 0 
1655 940 0 
1659 933 0 
1661 941 0 
1663 941 0 
1665 941 0 
1667 937 0 
1669 927 0 
1671 944 0 
1677 945 0 
1679 946 0 
1681 947 0 
1684 944 0 
1686 944 0 
1689 941 0 
1691 940 0 
1693 940 0 
1696 938 0 
1698 938 0 
1701 936 0 
1703 930 0 
1706 930 0 
1708 933 0 
1710 930 0 
1712 936 0 
1714 940 0 
1718 940 0 
1720 940 0 
1722 932 0 
1724 933 0 
1727 937 0 
1730 936 0 
1732 937 0 
1734 942 0 
1736 956 0 
1740 956 0 
1742 945 0 
1744 939 0 
1746 932 0 
1748 938 0 
1750 937 0 
1752 937 0 
1755 937 0 
1757 939 0 
1761 934 0 
1763 937 0 
1765 938 0 
1767 940 0 
1769 947 0 
1771 950 0 
1772 946 0 
1775 950 0 
1777 940 0 
1780 935 0 
1783 940 0 
1785 937 0 
1787 938 0 
1789 937 0 
1791 937 0 
1793 938 0 
1797 937 0 
1799 937 0 
1801 918 0 
1803 933 0 
1805 933 0 
1809 931 0 
1812 936 0 
1814 915 0 
1816 935 0 
1818 955 0 
1820 931 0 
1822 937 0 
1824 931 0 
1826 928 0 
1828 928 0 
1830 928 0 
1832 928 0 
1834 916 0 
1836 917 0 
1838 918 0 
1840 920 0 
1842 919 0 
1844 917 0 
1847 901 0 
1849 901 0 
1851 900 0 
1853 935 0 
1855 936 0 
1857 931 0 
1859 931 0 
1862 916 0 
1864 918 0 
1868 927 0 
1874 904 0 
1875 902 0 
1877 895 0 
1878 895 0 
1880 901 0 
1882 944 0 
1884 931 0 
1886 928 0 
1888 928 0 
1890 926 0 
1892 921 0 
1894 921 0 
1896 922 0 
1898 923 0 
1900 934 0 
1902 934 0 
1904 930 0 
1906 928 0 
1908 919 0 
1910 917 0 
1912 916 0 
1915 920 0 
1917 922 0 
1919 925 0 
1921 924 0 
1923 920 0 
1926 926 0 
1928 927.000012308395 0 
1930 919 0 
1932 898 0 
1934 899 0 
1937 927 0 
1939 924 0 
1941 898 0 
1943 930 0 
1945 925 0 
1947 925 0 
1950 915 0 
1952 930 0 
1955 924 0 
1957 920.000030277118 0 
1959 915.999976761476 0 
1961 918.999979691176 0 
1963 932 0 
1965 930 0 
1968 938 0 
1971 925 0 
1975 944 0 
1977 944 0 
1979 943 0 
1981 944 0 
1983 947 0 
1985 945 0 
1987 936 0 
1989 940 0 
1992 938 0 
1994 936 0 
1996 936 0 
1998 938 0 
2000 938 0 
2002 937 0 
2004 916 0 
2006 915 0 
2008 915 0 
2011 910 0 
2013 915 0 
2015 930 0 
2017 900 0 
2019 900 0 
2038 882 0 
2040 884 0 
2042 895 0 
2044 904 0 
2046 907 0 
2048 907 0 
2050 890 0 
2052 895 0 
2054 900 0 
2057 901 0 
2059 886 0 
2061 905 0 
2063 910 0 
2067 900 0 
2069 895 0 
2071 895 0 
2073 895 0 
2075 900 0 
2080 889 0 
2084 880 0 
2086 904 0 
2092 908 0 
2096 890 0 
2098 887 0 
2100 901 0 
2102 912 0 
2104 909 0 
2107 904 0 
2109 908 0 
2111 918 0 
2113 920 0 
2116 919 0 
2118 921 0 
2120 918 0 
2122 917 0 
2125 909 0 
2128 916 0 
2130 916 0 
2134 940 0 
2137 938 0 
2139 936.000021097494 0 
2150 911 0 
2159 906 0 
2165 899 0 
2167 875 0 
2170 928 0 
2174 917 0 
2177 913 0 
2179 920 0 
2181 903 0 
2186 914 0 
2188 922 0 
2191 920 0 
2193 921 0 
2196 922 0 
2198 915 0 
2200 922 0 
2203 914 0 
2205 915 0 
2208 914 0 
2210 913 0 
2212 916 0 
2215 878 0 
2217 886 0 
2219 893 0 
2221 893 0 
2223 893 0 
2225 896 0 
2227 899 0 
2230 904 0 
2232 904 0 
2240 896 0 
2242 900 0 
2244 886 0 
2246 886 0 
2248 884 0 
2250 882 0 
2254 911 0 
2257 914 0 
2260 889 0 
2263 892 0 
2267 887 0 
2269 886 0 
2273 893 0 
2275 895 0 
2291 935 0 
2294 933 0 
2296 933 0 
2298 932 0 
2300 940 0 
2302 934 0 
2304 931 0 
2306 920 0 
2307 913 0 
2309 913 0 
2311 914 0 
2313 916 0 
2315 913 0 
2317 908 0 
2319 919 0 
2322 936 0 
2342 928 0 
2344 930 0 
2346 929 0 
2348 930 0 
2356 916 0 
2360 915.999976761476 0 
2393 938 0 
2396 904 0 
2399 909 0 
2403 900 0 
2419 909 0 
2422 916 0 
2430 925 0 
2431 926 0 
2435 920 0 
2540 900 0 
2544 907 0 
2547 908 0 
2558 889 0 
2561 886 0 
2562 885 0 
2569 897 0 
2579 913 0 
2582 910 0 
2585 917 0 
2586 911 0 
2587 910 0 
2595 889 0 
2596 880 0 
2603 896 0 
2607 891 0 
2610 895 0 
2618 934 0 
2620 939 0 
2623 936 0 
2624 932 0 
2627 936 0 
2630 938 0 
2660 930 0 
2664 938 0 
2667 937 0 
2671 937 0 
2672 909 0 
2675 912 0 
2678 905 0 
2681 905 0 
2684 887 0 
2693 872 0 
2694 878 0 
2695 881 0 
2696 872 0 
2700 942 0 
2704 900 0 
2707 901 0 
2710 902 0 
2712 907 0 
2713 906 0 
2719 905 0 
2733 879 0 
2738 879 0 
2745 879 0 
2768 907 0 
2772 908 0 
2790 914 0 
2793 917 0 
2796 922 0 
2799 901 0 
2802 878 0 
2803 898 0 
2804 911 0 
2805 914 0 
2806 924 0 
2812 930 0 
2813 939 0 
2822 948 0 
2825 948 0 
2827 937 0 
2830 943 0 
2835 879 0 
2842 906 0 
2845 878 0 
2848 882 0 
2852 912 0 
2855 920 0 
2857 937 0 
2860 936 0 
2864 935 0 
2868 935 0 
2872 940 0 
2875 935 0 
2877 937 0 
2880 933 0 
2882 930 0 
2889 896 0 
2891 932 0 
2894 932 0 
2895 927 0 
2901 934 0 
2905 926 0 
2908 923 0 
2911 926 0 
2917 886 0 
2921 912 0 
2926 904 0 
2928 916 0 
2932 926 0 
2934 910 0 
2935 906 0 
2936 906 0 
2939 910 0 
2959 880 0 
2962 903 0 
2963 903 0 
2964 893 0 
2968 886 0 
2969 887 0 
2974 907 0 
2978 912 0 
2982 871 0 
3000 937 0 
3001 936 0 
3005 956 0 
3016 937 0 
3017 933 0 
3018 933 0 
3022 933 0 
3027 910 0 
3028 919 0 
3032 907 0 
3035 903 0 
3037 923 0 
3050 900 0 
3053 901 0 
3057 906 0 
3060 924 0 
3062 910 0 
3065 915 0 
3066 918 0 
3067 918 0 
3068 913 0 
3069 915 0 
3070 914 0 
3071 914 0 
3072 918 0 
3081 883 0 
3111 904 0 
3114 904 0 
3116 954 0 
3119 955 0 
3120 955 0 
3121 960 0 
3122 960 0 
3129 938 0 
3133 928 0 
3137 928 0 
3140 942 0 
3142 899 0 
3146 904 0 
3148 919 0 
3152 917 0 
3156 918 0 
3159 918 0 
3160 908 0 
3161 908 0 
3165 914 0 
3167 880 0 
3170 905 0 
3171 905 0 
3178 897 0 
3181 911 0 
3184 912 0 
3188 910 0 
3191 901 0 
3194 900 0 
3196 901 0 
3198 899 0 
3205 868 0 
3218 917 0 
3220 917 0 
3225 899 0 
3228 906 0 
3233 928 0 
3242 947 0 
3250 902 0 
3251 900 0 
3270 914 0 
3275 923 0 
3284 921 0 
3288 923 0 
3289 923 0 
3294 917 0 
3296 918 0 
3300 901 0 
3303 901 0 
3306 901 0 
3309 907 0 
3314 907 0 
3319 907 0 
3333 938 0 
3336 879 0 
3346 880 0 
3350 899 0 
3356 886 0 
3359 892 0 
3362 915 0 
3365 914 0 
3367 910 0 
3378 878 0 
3382 889 0 
3384 881 0 
3386 903 0 
3390 906 0 
3396 930 0 
3397 930 0 
3401 916 0 
3406 918 0 
3415 928 0 
3417 930 0 
3424 924 0 
3429 936 0 
3431 937 0 
3433 936 0 
3439 943 0 
3440 943 0 
3443 904 0 
3444 900 0 
3447 909 0 
3453 903 0 
3462 927 0 
3464 922 0 
3476 936 0 
3478 935 0 
3480 936 0 
3496 930 0 
3509 922 0 
3513 922 0 
3518 925 0 
3522 925 0 
3528 940 0 
3532 939 0 
3545 928 0 
3562 926 0 
3565 930 0 
3570 934 0 
3575 932 0 
3593 936 0 
3597 880 0 
3602 918 0 
3606 904 0 
3612 904 0 
3615 905 0 
3617 938 0 
3623 937 0 
3626 934 0 
3633 937 0 
3643 931 0 
3652 890 0 
3655 900 0 
3660 880 0 
3666 931 0 
3672 928 0 
3677 953 0 
3683 910 0 
3687 956 0 
3697 940 0 
3701 918 0 
3710 910 0 
3721 938 0 
3730 957 0 
3734 957 0 

[RESERVOIRS]
112 984 
502 945 

[DEMANDS]
29 1.37375 
31 1.37375 
33 1.14479166666667 
35 1.37375 
37 0.217777777777778 
39 0.163333333333333 
49 0.326666666666667 
51 0.544444444444445 
53 0.479111111111111 
55 0.119777777777778 
59 0.217777777777778 
61 0.217777777777778 
63 0.0871111111111111 
65 0.141555555555556 
67 0.108888888888889 
69 0.0892888888888889 
71 0.098 
73 0.141555555555556 
75 0.141555555555556 
77 0.108888888888889 
79 0.141555555555556 
81 0.0892888888888889 
83 0.0892888888888889 
85 0.098 
87 0.915833333333333 
89 0.82425 
91 0.6654375 
93 1.02375 
95 1.02375 
97 0.6825 
99 0.64155 
101 0.64155 
103 0.334425 
105 0.211575 
107 0.552825 
109 0.552825 
113 0.6181875 
115 0.6181875 
117 0.5495 
119 0.6181875 
121 0.6181875 
123 0.760141666666666 
125 0.228958333333333 
127 0.228958333333333 
133 0.6785625 
135 0.699125 
137 0.3084375 
139 0.41125 
149 0.0784 
153 0.152444444444444 
155 0.174222222222222 
160 0.27475 
162 0.27475 
164 0.801354166666667 
166 1.08068333333333 
168 0.915833333333333 
170 0.196 
172 0.30625 
174 0.30625 
176 0.289236111111111 
178 0.510416666666667 
180 0.152444444444444 
182 0.0696888888888889 
184 0.098 
186 0.289236111111111 
194 0.185111111111111 
196 0.174222222222222 
200 0.152444444444444 
204 0.217777777777778 
206 0.370222222222222 
208 0.435555555555556 
210 0.435555555555556 
213 0.196 
217 0.174222222222222 
219 0.206888888888889 
221 0.326666666666667 
223 0.435555555555556 
226 0.163333333333333 
228 0.370222222222222 
231 0.435555555555556 
236 0.544444444444445 
239 0.163333333333333 
241 0.544444444444445 
243 0.185111111111111 
245 0.174222222222222 
247 0.174222222222222 
249 0.196 
251 0.185111111111111 
256 0.206888888888889 
259 0.0871111111111111 
261 0.0696888888888889 
263 0.0912916666666667 
265 0.0852055555555556 
269 0.0608611111111111 
271 0.0943347222222222 
274 0.0760763888888889 
278 0.0973777777777778 
280 0.395597222222222 
282 0.146066666666667 
284 0.121722222222222 
286 0.182583333333333 
288 0.0675111111111111 
290 0.0718666666666667 
293 0.0871111111111111 
295 0.0827555555555556 
297 0.0762222222222222 
299 0.141555555555556 
301 0.119777777777778 
306 0.141555555555556 
308 0.130666666666667 
310 0.0892888888888889 
312 0.0805777777777778 
314 0.130666666666667 
324 0.196 
331 0.119777777777778 
333 20.6888888888889 
339 0.106506944444444 
342 0.106506944444444 
344 0.243444444444444 
346 0.304305555555556 
348 0.228229166666667 
350 0.213013888888889 
353 0.0821625 
357 0.197798611111111 
359 0.456458333333333 
361 0.517319444444444 
363 0.1369375 
365 0.1369375 
367 0.121722222222222 
369 0.365166666666667 
373 0.149109722222222 
376 0.0871111111111111 
378 0.0696888888888889 
380 0.119777777777778 
382 0.119777777777778 
384 0.098 
386 0.108888888888889 
388 0.108888888888889 
390 0.0892888888888889 
394 0.141555555555556 
398 0.0871111111111111 
404 0.130666666666667 
408 0.196 
410 0.217777777777778 
412 0.141555555555556 
414 0.206888888888889 
418 0.217777777777778 
420 0.141555555555556 
422 0.370222222222222 
424 0.326666666666667 
434 0.118144444444444 
436 0.0653333333333333 
438 0.0675111111111111 
440 0.118144444444444 
442 0.126583333333333 
444 0.295361111111111 
446 0.316458333333333 
448 0.358652777777778 
452 0.421944444444444 
454 0.329116666666667 
455 0.717305555555555 
457 0.37975 
459 0.464138888888889 
461 0.337555555555556 
463 0.210972222222222 
465 0.118144444444444 
467 0.400847222222222 
471 0.297645833333333 
473 0.595291666666667 
475 0.7555625 
477 0.801354166666667 
480 1.37375 
482 0.915833333333333 
484 0.915833333333333 
489 0.641083333333333 
491 0.641083333333333 
493 0.7555625 
495 0.641083333333333 
497 0.663979166666667 
505 1.0075625 
507 0.6785625 
523 0.9993375 
533 0.9664375 
535 0.9582125 
537 0.534625 
539 0.663979166666667 
541 0.760141666666666 
543 0.641083333333333 
545 0.2060625 
550 0.183166666666667 
552 0.2060625 
558 0.5963125 
560 0.5551875 
562 0.3495625 
566 0.41125 
568 0.3906875 
571 1.53615 
575 1.41589583333333 
577 1.55166666666667 
579 2.28870833333333 
581 2.13354166666667 
583 1.4314125 
585 1.47408333333333 
587 1.43917083333333 
589 1.4779625 
595 1.36546666666667 
597 1.13659583333333 
599 1.90079166666667 
601 1.9201875 
603 2.52145833333333 
607 1.38874166666667 
609 1.52839166666667 
611 1.34607083333333 
613 1.40425833333333 
617 0.912975 
621 0.9664375 
623 0.9664375 
626 0.9664375 
627 0.9664375 
629 0.2261875 
631 0.205625 
634 0.205625 
638 0.205625 
640 0.2344125 
642 0.2344125 
644 0.2344125 
646 0.2344125 
648 0.271425 
654 0.163333333333333 
656 0.457916666666667 
658 0.888358333333333 
660 0.2060625 
662 0.2060625 
664 0.5495 
666 0.847145833333333 
669 0.870041666666666 
673 0.897516666666666 
675 0.897516666666666 
678 0.897516666666666 
680 0.897516666666666 
682 0.457916666666667 
684 0.27475 
686 0.320541666666667 
688 0.663979166666667 
690 0.663979166666667 
692 0.663979166666667 
694 0.412125 
696 0.8225 
698 0.2060625 
700 0.183166666666667 
702 0.183166666666667 
711 0.457916666666667 
713 0.5495 
715 0.320541666666667 
717 1.0486875 
719 1.0486875 
723 1.0486875 
725 0.9664375 
728 0.616875 
730 0.287875 
732 0.287875 
734 0.57575 
738 0.57575 
740 0.3166625 
742 0.74025 
745 0.9582125 
747 0.945875 
749 0.9253125 
751 1.0075625 
754 0.329 
756 0.4729375 
763 0.9253125 
767 0.995225 
769 0.945875 
771 0.945875 
773 0.90475 
775 0.5963125 
777 0.27965 
779 0.3619 
781 0.4729375 
783 0.4729375 
785 0.3906875 
787 0.329 
789 0.370125 
791 0.485275 
795 0.228958333333333 
797 0.160270833333333 
799 0.160270833333333 
811 0.160270833333333 
813 0.137375 
815 0.485275 
817 0.5551875 
819 0.9582125 
821 0.987 
823 0.41125 
829 0.2303 
832 0.2303 
836 0.403025 
838 0.205625 
840 0.24675 
842 0.945875 
851 0.1850625 
855 0.987 
857 0.5963125 
859 0.4729375 
862 0.995225 
864 0.666225 
866 0.287875 
869 0.2673125 
871 0.649775 
873 0.3084375 
875 0.287875 
881 0.658 
882 0.987 
885 0.760141666666666 
887 0.760141666666666 
889 0.2060625 
891 0.801354166666667 
893 0.183166666666667 
896 0.9664375 
898 1.645 
900 1.23375 
902 0.289236111111111 
904 0.289236111111111 
906 0.30625 
908 0.289236111111111 
910 0.24255 
912 0.0945 
915 0.09135 
917 0.34125 
919 0.3241875 
923 0.30625 
931 0.189 
933 0.0882 
935 0.0945 
937 0.09135 
939 0.0882 
941 0.3087 
943 0.378 
945 0.4095 
947 0.4347 
949 0.41265 
951 0.126 
953 0.5355 
956 0.378 
958 0.4032 
960 0.4284 
962 0.4347 
964 0.4095 
966 0.36855 
968 0.255208333333333 
972 0.30625 
975 0.30625 
977 0.30625 
979 0.272222222222222 
981 0.272222222222222 
983 0.289236111111111 
985 0.289236111111111 
987 0.680555555555555 
989 0.30625 
990 0.255208333333333 
992 0.30625 
994 0.289236111111111 
996 0.323263888888889 
998 0.3969 
1000 0.0853125 
1009 0.408333333333333 
1012 0.2205 
1014 0.21735 
1016 0.14175 
1018 0.1134 
1020 0.09135 
1023 0.07875 
1027 0.0945 
1029 0.08505 
1031 0.315 
1035 0.21105 
1037 0.26775 
1039 0.5796 
1041 0.5733 
1043 0.5733 
1045 0.5796 
1047 0.5607 
1049 0.5607 
1051 0.4977 
1053 0.48825 
1055 0.4599 
1057 0.41895 
1059 0.567 
1061 0.1575 
1063 0.1953 
1065 0.14175 
1069 0.14805 
1071 0.1575 
1076 0.1953 
1078 0.58275 
1080 0.58275 
1083 0.51975 
1085 0.4725 
1087 0.252 
1090 0.20475 
1092 0.14805 
1096 0.1071 
1098 0.5985 
1100 0.5103 
1102 0.5355 
1104 0.5481 
1106 0.5355 
1108 0.51975 
1111 0.09135 
1113 0.5481 
1115 0.5544 
1119 0.4662 
1121 0.5355 
1127 0.1575 
1129 0.7875 
1131 0.1575 
1133 0.14805 
1135 0.5733 
1139 0.4662 
1141 0.26775 
1143 0.20475 
1145 0.14805 
1147 0.14805 
1149 0.21105 
1151 0.20475 
1153 0.24255 
1155 0.2268 
1157 0.2457 
1159 0.21105 
1161 0.58905 
1165 0.14805 
1167 0.0945 
1169 0.252 
1172 0.29925 
1174 1.365 
1175 0.6313125 
1177 0.6313125 
1179 0.567 
1181 0.48825 
1183 0.0819 
1187 0.088725 
1189 0.51975 
1191 0.4725 
1193 0.5544 
1195 0.4599 
1197 0.4788 
1199 0.441 
1201 0.48825 
1203 0.504 
1206 0.34125 
1208 0.1876875 
1210 0.546 
1217 0.546 
1219 0.4129125 
1221 0.4129125 
1223 0.34125 
1225 0.3241875 
1229 0.3241875 
1231 0.307125 
1233 0.307125 
1235 0.307125 
1238 0.307125 
1242 0.511875 
1244 0.4129125 
1246 0.307125 
1249 0.375375 
1251 0.4948125 
1253 0.4948125 
1255 0.4948125 
1257 0.546 
1260 0.61425 
1262 0.1876875 
1264 0.3241875 
1266 0.3241875 
1268 0.4129125 
1270 0.511875 
1272 0.375375 
1274 0.34125 
1276 0.239555555555556 
1278 0.3241875 
1279 0.6279 
1281 0.1535625 
1283 0.1876875 
1285 0.375375 
1287 0.31395 
1289 0.102375 
1291 0.6313125 
1293 0.307125 
1295 0.6313125 
1297 0.287875 
1301 1.0075625 
1306 1.0075625 
1310 0.945875 
1315 0.8841875 
1316 0.9335375 
1318 1.51675416666667 
1320 1.39262083333333 
1322 1.14435416666667 
1324 1.1288375 
1326 1.20254166666667 
1328 1.1521125 
1332 1.3034 
1334 1.3383125 
1336 1.373225 
1338 1.44692916666667 
1342 1.31115833333333 
1344 1.34607083333333 
1346 1.36546666666667 
1348 1.40037916666667 
1350 1.41589583333333 
1352 1.53227083333333 
1355 0.7196875 
1356 0.60865 
1358 0.57575 
1360 0.3948 
1365 1.512875 
1369 1.37710416666667 
1371 1.36934583333333 
1373 1.140475 
1379 1.12495833333333 
1381 1.15599166666667 
1387 1.12495833333333 
1389 1.29952083333333 
1391 1.40037916666667 
1393 1.3965 
1395 1.3965 
1397 1.44692916666667 
1400 1.55166666666667 
1403 1.53227083333333 
1405 1.55166666666667 
1407 1.4081375 
1420 1.512875 
1424 1.43529166666667 
1428 2.30810416666667 
1430 2.28870833333333 
1432 2.30810416666667 
1437 2.28870833333333 
1439 1.47408333333333 
1444 2.30810416666667 
1447 2.71541666666667 
1455 1.3965 
1457 1.40037916666667 
1461 1.280125 
1467 1.1055625 
1469 1.10168333333333 
1471 1.3848625 
1474 1.40425833333333 
1477 1.47408333333333 
1484 1.931825 
1488 0.2673125 
1490 0.2632 
1492 0.41125 
1495 0.2261875 
1498 0.2673125 
1502 0.2673125 
1505 0.962325 
1507 0.64155 
1509 0.57575 
1513 0.271425 
1521 1.52839166666667 
1523 1.3965 
1525 1.22581666666667 
1527 1.12495833333333 
1529 1.2103 
1537 1.09780416666667 
1541 0.3084375 
1548 0.3906875 
1554 0.616875 
1556 0.2303 
1558 0.5140625 
1560 0.27965 
1563 0.485275 
1565 0.205625 
1567 0.205625 
1569 0.1413125 
1571 0.125611111111111 
1573 0.471041666666667 
1575 0.376833333333333 
1577 0.204118055555556 
1579 0.2261 
1581 0.2261 
1583 0.361131944444444 
1585 0.2261 
1591 0.1638 
1593 0.3924375 
1595 0.3924375 
1599 0.334425 
1601 0.157013888888889 
1603 0.188416666666667 
1605 0.172715277777778 
1607 0.345430555555556 
1611 0.408236111111111 
1613 0.345430555555556 
1615 0.345430555555556 
1617 0.219819444444444 
1619 0.361131944444444 
1621 0.408236111111111 
1623 0.361131944444444 
1625 0.188416666666667 
1627 0.204118055555556 
1629 0.376833333333333 
1631 0.361131944444444 
1634 0.361131944444444 
1637 0.361131944444444 
1639 0.376833333333333 
1642 0.204118055555556 
1645 0.376833333333333 
1647 0.361131944444444 
1649 0.471041666666667 
1651 0.1876875 
1655 0.546 
1659 0.334425 
1661 0.61425 
1663 0.61425 
1665 0.61425 
1667 0.375375 
1669 0.09555 
1671 0.6654375 
1677 0.75075 
1679 0.75075 
1681 0.853125 
1684 0.6825 
1686 0.6722625 
1689 0.61425 
1691 0.546 
1693 0.546 
1696 0.443625 
1698 0.443625 
1701 0.3924375 
1703 0.1876875 
1706 0.34125 
1708 0.307125 
1710 0.1876875 
1712 0.3924375 
1714 0.546 
1718 0.546 
1720 0.546 
1722 0.273 
1724 0.3241875 
1727 0.3924375 
1730 0.3924375 
1732 0.3924375 
1734 0.6244875 
1736 1.70625 
1740 1.70625 
1742 0.75075 
1744 0.511875 
1746 0.273 
1748 0.443625 
1750 0.3924375 
1752 0.3924375 
1755 0.3924375 
1757 0.511875 
1761 0.307125 
1763 0.3924375 
1765 0.443625 
1767 0.546 
1769 0.921375 
1771 1.194375 
1772 0.921375 
1775 1.194375 
1777 0.552825 
1780 0.334425 
1783 0.552825 
1785 0.3924375 
1787 0.443625 
1789 0.3924375 
1791 0.3924375 
1793 0.443625 
1797 0.3924375 
1799 0.3924375 
1801 0.0853125 
1803 0.307125 
1805 0.307125 
1809 0.225225 
1812 0.628055555555555 
1814 0.204118055555556 
1816 0.334425 
1818 1.194375 
1820 0.225225 
1822 0.375375 
1824 0.225225 
1826 0.102375 
1828 0.102375 
1830 0.102375 
1832 0.102375 
1834 0.3465 
1836 0.36225 
1838 0.378 
1840 0.4095 
1842 0.39375 
1844 0.36225 
1847 0.126 
1849 0.126 
1851 0.0945 
1853 0.334425 
1855 0.34125 
1857 0.225225 
1859 0.225225 
1862 0.315 
1864 0.088725 
1868 0.0853125 
1874 0.14805 
1875 0.14175 
1877 0.09135 
1878 0.0945 
1880 0.126 
1882 0.6654375 
1884 0.211575 
1886 0.102375 
1888 0.102375 
1890 0.4977 
1892 0.41265 
1894 0.4095 
1896 0.42525 
1898 0.441 
1900 0.57015 
1902 0.567 
1904 0.54495 
1906 0.5292 
1908 0.3906 
1910 0.3528 
1912 0.3465 
1915 0.4032 
1917 0.42525 
1919 0.4788 
1921 0.45675 
1923 0.3969 
1926 0.0853125 
1928 0.088725 
1930 0.0853125 
1932 0.088725 
1934 0.0853125 
1937 0.0921375 
1939 0.0921375 
1941 0.0819 
1943 0.55755 
1945 0.47565 
1947 0.47565 
1950 0.3024 
1952 0.54495 
1955 0.4473 
1957 0.39375 
1959 0.315 
1961 0.3843 
1963 0.57015 
1965 0.5418 
1968 0.63 
1971 0.46305 
1975 0.66885 
1977 0.66885 
1979 0.6313125 
1981 0.6825 
1983 0.853125 
1985 0.6825 
1987 0.34125 
1989 0.546 
1992 0.443625 
1994 0.34125 
1996 0.34125 
1998 0.443625 
2000 0.443625 
2002 0.3924375 
2004 0.658 
2006 0.60865 
2008 0.616875 
2011 0.4935 
2013 0.616875 
2015 1.0486875 
2017 0.205625 
2019 0.222075 
2038 1.14823333333333 
2040 1.16375 
2042 1.32279583333333 
2044 1.4546875 
2046 1.52063333333333 
2048 1.51675416666667 
2050 1.25297083333333 
2052 1.326675 
2054 1.38874166666667 
2057 1.41201666666667 
2059 1.21417916666667 
2061 1.47408333333333 
2063 1.53227083333333 
2067 1.3848625 
2069 1.31115833333333 
2071 1.32279583333333 
2073 1.32279583333333 
2075 1.41589583333333 
2080 1.24133333333333 
2084 1.14823333333333 
2086 1.43917083333333 
2092 1.52839166666667 
2096 1.26072916666667 
2098 1.22969583333333 
2100 1.40425833333333 
2102 2.28870833333333 
2104 1.54002916666667 
2107 1.44305 
2109 0.446104166666667 
2111 0.90475 
2113 0.93765 
2116 0.912975 
2118 0.9582125 
2120 0.90475 
2122 0.74025 
2125 1.54002916666667 
2128 2.13354166666667 
2130 2.3275 
2134 0.792195833333333 
2137 0.778458333333333 
2139 0.595291666666667 
2150 0.534625 
2159 1.48572083333333 
2165 1.373225 
2167 1.1055625 
2170 0.9993375 
2174 0.7608125 
2177 0.5963125 
2179 0.962325 
2181 0.329 
2188 0.9664375 
2191 0.929425 
2193 0.9541 
2196 0.9664375 
2198 0.6374375 
2200 0.962325 
2203 0.577995833333333 
2205 0.633325 
2208 0.616875 
2210 0.60865 
2212 0.64155 
2215 1.10944166666667 
2217 1.22969583333333 
2219 1.28788333333333 
2221 1.28400416666667 
2223 1.29564166666667 
2225 1.34219166666667 
2227 1.38098333333333 
2230 1.44692916666667 
2232 1.44692916666667 
2240 1.3383125 
2242 1.38874166666667 
2244 1.22969583333333 
2246 1.22969583333333 
2248 1.2103 
2250 1.15599166666667 
2254 2.28870833333333 
2257 1.93958333333333 
2260 1.24909166666667 
2263 1.27236666666667 
2267 1.24133333333333 
2269 1.2219375 
2273 1.28400416666667 
2275 1.31891666666667 
2291 0.5495 
2294 0.412125 
2298 0.366333333333333 
2300 0.792195833333333 
2302 0.457916666666667 
2304 0.27475 
2306 0.929425 
2307 0.616875 
2309 0.616875 
2311 0.616875 
2313 0.6785625 
2315 0.616875 
2317 0.4729375 
2319 0.9253125 
2342 0.9993375 
2344 1.0075625 
2346 0.995225 
2348 1.0075625 
2356 0.272222222222222 
2360 0.272222222222222 
2393 0.443625 
2396 0.329 
2399 1.54390833333333 
2403 0.2261875 
2419 0.41125 
2422 0.666225 
2430 0.30625 
2431 0.323263888888889 
2435 0.289236111111111 
2693 0.08505 
2812 0.228958333333333 
2962 1.43529166666667 
3683 0.153125 
3701 0.272222222222222 
3710 0.153125 

[EMITTERS]

[PIPES]
32 29 31 4.63757976945602 400 120 0 
34 31 33 98.1531448482444 400 120 0 